


 36 37  0  0  0  0  0  0  0  0999 V2000
    0.2401    3.7823    0.5344 H   0  0  0  1  0  0  0  0  0  0  0  0
    0.9916    1.8674    0.9282 C   0  0  0  1  0  0  0  0  0  0  0  0
   -0.4353    2.5164   -0.9560 N   0  0  0  1  0  0  0  0  0  0  0  0
   -0.1221    2.7780    0.4628 C   0  0  0  1  0  0  0  0  0  0  0  0
    1.7342    2.1997    1.8511 O   0  0  0  1  0  0  0  0  0  0  0  0
    1.1447    0.6883    0.3050 N   0  0  0  1  0  0  0  0  0  0  0  0
   -1.3302    2.1777   -1.1674 H   0  0  0  1  0  0  0  0  0  0  0  0
    0.4082    2.7064   -1.9718 C   0  0  0  1  0  0  0  0  0  0  0  0
    2.1720   -0.2674    0.6912 C   0  0  0  1  0  0  0  0  0  0  0  0
   -0.1795    2.5276   -3.3581 C   0  0  0  1  0  0  0  0  0  0  0  0
    1.5884    3.0073   -1.8137 O   0  0  0  1  0  0  0  0  0  0  0  0
    0.5438    0.4633   -0.4357 H   0  0  0  1  0  0  0  0  0  0  0  0
    1.9259   -0.6915    1.6422 H   0  0  0  1  0  0  0  0  0  0  0  0
    3.1163    0.2314    0.7570 H   0  0  0  1  0  0  0  0  0  0  0  0
    2.2290   -1.0449   -0.0417 H   0  0  0  1  0  0  0  0  0  0  0  0
   -0.9635    3.2400   -3.5084 H   0  0  0  1  0  0  0  0  0  0  0  0
   -0.5745    1.5377   -3.4528 H   0  0  0  1  0  0  0  0  0  0  0  0
    0.5849    2.6788   -4.0915 H   0  0  0  1  0  0  0  0  0  0  0  0
   -1.4036    2.7047    1.2989 C   0  0  0  1  0  0  0  0  0  0  0  0
   -2.3546    3.8068    0.9157 C   0  0  0  1  0  0  0  0  0  0  0  0
   -2.5493    4.9873    1.5702 C   0  0  0  1  0  0  0  0  0  0  0  0
   -3.5079    5.7309    0.9308 N   0  0  0  1  0  0  0  0  0  0  0  0
   -3.9412    5.0477   -0.1725 C   0  0  0  1  0  0  0  0  0  0  0  0
   -4.8894    5.3899   -1.1405 C   0  0  0  1  0  0  0  0  0  0  0  0
   -5.1295    4.4781   -2.1454 C   0  0  0  1  0  0  0  0  0  0  0  0
   -4.4599    3.2595   -2.1949 C   0  0  0  1  0  0  0  0  0  0  0  0
   -3.5208    2.9236   -1.2449 C   0  0  0  1  0  0  0  0  0  0  0  0
   -3.2429    3.8291   -0.2153 C   0  0  0  1  0  0  0  0  0  0  0  0
   -4.7346    2.3934   -3.1891 F   0  0  0  1  0  0  0  0  0  0  0  0
   -1.1528    2.8021    2.3345 H   0  0  0  1  0  0  0  0  0  0  0  0
   -1.8769    1.7595    1.1333 H   0  0  0  1  0  0  0  0  0  0  0  0
   -2.0437    5.2812    2.4302 H   0  0  0  1  0  0  0  0  0  0  0  0
   -3.8307    6.6105    1.2180 H   0  0  0  1  0  0  0  0  0  0  0  0
   -5.3947    6.2982   -1.1039 H   0  0  0  1  0  0  0  0  0  0  0  0
   -5.8266    4.7057   -2.8828 H   0  0  0  1  0  0  0  0  0  0  0  0
   -3.0256    2.0102   -1.2923 H   0  0  0  1  0  0  0  0  0  0  0  0
  1  4  1  0  0  0  0
  2  4  1  0  0  0  0
  2  5  2  0  0  0  0
  2  6  1  0  0  0  0
  3  4  1  0  0  0  0
  3  7  1  0  0  0  0
  3  8  1  0  0  0  0
  4 19  1  0  0  0  0
  6  9  1  0  0  0  0
  6 12  1  0  0  0  0
  8 10  1  0  0  0  0
  8 11  2  0  0  0  0
  9 13  1  0  0  0  0
  9 14  1  0  0  0  0
  9 15  1  0  0  0  0
 10 16  1  0  0  0  0
 10 17  1  0  0  0  0
 10 18  1  0  0  0  0
 19 20  1  0  0  0  0
 19 30  1  0  0  0  0
 19 31  1  0  0  0  0
 20 21  4  0  0  0  0
 20 28  4  0  0  0  0
 21 22  4  0  0  0  0
 21 32  1  0  0  0  0
 22 23  4  0  0  0  0
 22 33  1  0  0  0  0
 23 24  4  0  0  0  0
 23 28  4  0  0  0  0
 24 25  4  0  0  0  0
 24 34  1  0  0  0  0
 25 26  4  0  0  0  0
 25 35  1  0  0  0  0
 26 27  4  0  0  0  0
 26 29  1  0  0  0  0
 27 28  4  0  0  0  0
 27 36  1  0  0  0  0
M  END
> <BCLConfClusterSize>
1

> <ConfClashScore>
0 

> <ConfOneFourInteractionScore>
-0.956443 

> <ConfScore>
0.358325 

> <ConfScorePBest>
0.028962 

> <ConfTolerance>
0.25 

> <RosettaParamsInstructions>
M  ROOT 3
M  POLY_N_BB 3
M  POLY_CA_BB 4
M  POLY_C_BB 2
M  POLY_O_BB 5
M  POLY_IGNORE 9 10 11 12 13 14 15 16 17 18 
M  POLY_UPPER 6
M  POLY_LOWER 8
M  POLY_CHG 0
M  POLY_PROPERTIES ALPHA_AA L_AA PROTEIN AROMATIC POLYMER 
M  END

$$$$



 36 37  0  0  0  0  0  0  0  0999 V2000
    0.3822    3.7957    1.0340 H   0  0  0  1  0  0  0  0  0  0  0  0
    0.9226    1.7713    1.1448 C   0  0  0  1  0  0  0  0  0  0  0  0
   -0.1625    2.9715   -0.7664 N   0  0  0  1  0  0  0  0  0  0  0  0
   -0.0137    2.8682    0.6763 C   0  0  0  1  0  0  0  0  0  0  0  0
    1.6189    1.9138    2.1371 O   0  0  0  1  0  0  0  0  0  0  0  0
    0.9290    0.6609    0.4068 N   0  0  0  1  0  0  0  0  0  0  0  0
   -1.0644    2.9720   -1.1500 H   0  0  0  1  0  0  0  0  0  0  0  0
    0.8977    3.0669   -1.5954 C   0  0  0  1  0  0  0  0  0  0  0  0
    1.8789   -0.4285    0.5774 C   0  0  0  1  0  0  0  0  0  0  0  0
    0.6367    3.0794   -3.0846 C   0  0  0  1  0  0  0  0  0  0  0  0
    2.0440    3.1415   -1.1550 O   0  0  0  1  0  0  0  0  0  0  0  0
    0.2509    0.5726   -0.2951 H   0  0  0  1  0  0  0  0  0  0  0  0
    2.8564   -0.0270    0.7450 H   0  0  0  1  0  0  0  0  0  0  0  0
    1.8887   -1.0341   -0.3047 H   0  0  0  1  0  0  0  0  0  0  0  0
    1.5898   -1.0252    1.4172 H   0  0  0  1  0  0  0  0  0  0  0  0
   -0.2055    3.7052   -3.2943 H   0  0  0  1  0  0  0  0  0  0  0  0
    0.4330    2.0837   -3.4191 H   0  0  0  1  0  0  0  0  0  0  0  0
    1.4980    3.4582   -3.5942 H   0  0  0  1  0  0  0  0  0  0  0  0
   -1.4036    2.7047    1.2989 C   0  0  0  1  0  0  0  0  0  0  0  0
   -2.3546    3.8068    0.9157 C   0  0  0  1  0  0  0  0  0  0  0  0
   -2.5493    4.9873    1.5702 C   0  0  0  1  0  0  0  0  0  0  0  0
   -3.5079    5.7309    0.9308 N   0  0  0  1  0  0  0  0  0  0  0  0
   -3.9412    5.0477   -0.1725 C   0  0  0  1  0  0  0  0  0  0  0  0
   -4.8894    5.3899   -1.1405 C   0  0  0  1  0  0  0  0  0  0  0  0
   -5.1295    4.4781   -2.1454 C   0  0  0  1  0  0  0  0  0  0  0  0
   -4.4599    3.2595   -2.1949 C   0  0  0  1  0  0  0  0  0  0  0  0
   -3.5208    2.9236   -1.2449 C   0  0  0  1  0  0  0  0  0  0  0  0
   -3.2429    3.8291   -0.2153 C   0  0  0  1  0  0  0  0  0  0  0  0
   -4.7346    2.3934   -3.1891 F   0  0  0  1  0  0  0  0  0  0  0  0
   -1.3011    2.6983    2.3639 H   0  0  0  1  0  0  0  0  0  0  0  0
   -1.8147    1.7718    0.9740 H   0  0  0  1  0  0  0  0  0  0  0  0
   -2.0437    5.2812    2.4302 H   0  0  0  1  0  0  0  0  0  0  0  0
   -3.8307    6.6105    1.2180 H   0  0  0  1  0  0  0  0  0  0  0  0
   -5.3947    6.2982   -1.1039 H   0  0  0  1  0  0  0  0  0  0  0  0
   -5.8266    4.7057   -2.8828 H   0  0  0  1  0  0  0  0  0  0  0  0
   -3.0256    2.0102   -1.2923 H   0  0  0  1  0  0  0  0  0  0  0  0
  1  4  1  0  0  0  0
  2  4  1  0  0  0  0
  2  5  2  0  0  0  0
  2  6  1  0  0  0  0
  3  4  1  0  0  0  0
  3  7  1  0  0  0  0
  3  8  1  0  0  0  0
  4 19  1  0  0  0  0
  6  9  1  0  0  0  0
  6 12  1  0  0  0  0
  8 10  1  0  0  0  0
  8 11  2  0  0  0  0
  9 13  1  0  0  0  0
  9 14  1  0  0  0  0
  9 15  1  0  0  0  0
 10 16  1  0  0  0  0
 10 17  1  0  0  0  0
 10 18  1  0  0  0  0
 19 20  1  0  0  0  0
 19 30  1  0  0  0  0
 19 31  1  0  0  0  0
 20 21  4  0  0  0  0
 20 28  4  0  0  0  0
 21 22  4  0  0  0  0
 21 32  1  0  0  0  0
 22 23  4  0  0  0  0
 22 33  1  0  0  0  0
 23 24  4  0  0  0  0
 23 28  4  0  0  0  0
 24 25  4  0  0  0  0
 24 34  1  0  0  0  0
 25 26  4  0  0  0  0
 25 35  1  0  0  0  0
 26 27  4  0  0  0  0
 26 29  1  0  0  0  0
 27 28  4  0  0  0  0
 27 36  1  0  0  0  0
M  END
> <BCLConfClusterSize>
1

> <ConfClashScore>
0 

> <ConfOneFourInteractionScore>
-0.956443 

> <ConfScore>
0.36474 

> <ConfScorePBest>
0.0285962 

> <ConfTolerance>
0.293507 

> <RosettaParamsInstructions>
M  ROOT 3
M  POLY_N_BB 3
M  POLY_CA_BB 4
M  POLY_C_BB 2
M  POLY_O_BB 5
M  POLY_IGNORE 9 10 11 12 13 14 15 16 17 18 
M  POLY_UPPER 6
M  POLY_LOWER 8
M  POLY_CHG 0
M  POLY_PROPERTIES ALPHA_AA L_AA PROTEIN AROMATIC POLYMER 
M  END

$$$$



 36 37  0  0  0  0  0  0  0  0999 V2000
   -2.7389    1.0559    1.2300 H   0  0  0  1  0  0  0  0  0  0  0  0
   -1.1653    0.5368    2.5548 C   0  0  0  1  0  0  0  0  0  0  0  0
   -3.0342    2.0475    3.0209 N   0  0  0  1  0  0  0  0  0  0  0  0
   -2.1522    1.5518    1.9748 C   0  0  0  1  0  0  0  0  0  0  0  0
   -0.6521   -0.3192    1.8354 O   0  0  0  1  0  0  0  0  0  0  0  0
   -0.8635    0.7240    3.8405 N   0  0  0  1  0  0  0  0  0  0  0  0
   -3.0557    3.0099    3.2047 H   0  0  0  1  0  0  0  0  0  0  0  0
   -3.8452    1.2056    3.7665 C   0  0  0  1  0  0  0  0  0  0  0  0
    0.1383   -0.0766    4.5285 C   0  0  0  1  0  0  0  0  0  0  0  0
   -4.6228    1.7736    4.9204 C   0  0  0  1  0  0  0  0  0  0  0  0
   -3.9005    0.0286    3.4599 O   0  0  0  1  0  0  0  0  0  0  0  0
   -1.3327    1.4252    4.3392 H   0  0  0  1  0  0  0  0  0  0  0  0
    0.0055   -1.1081    4.2769 H   0  0  0  1  0  0  0  0  0  0  0  0
    0.0306    0.0492    5.5856 H   0  0  0  1  0  0  0  0  0  0  0  0
    1.1153    0.2404    4.2287 H   0  0  0  1  0  0  0  0  0  0  0  0
   -5.0630    2.7048    4.6306 H   0  0  0  1  0  0  0  0  0  0  0  0
   -3.9652    1.9328    5.7494 H   0  0  0  1  0  0  0  0  0  0  0  0
   -5.3938    1.0875    5.2028 H   0  0  0  1  0  0  0  0  0  0  0  0
   -1.4036    2.7047    1.2989 C   0  0  0  1  0  0  0  0  0  0  0  0
   -2.3546    3.8068    0.9157 C   0  0  0  1  0  0  0  0  0  0  0  0
   -2.5493    4.9873    1.5702 C   0  0  0  1  0  0  0  0  0  0  0  0
   -3.5079    5.7309    0.9308 N   0  0  0  1  0  0  0  0  0  0  0  0
   -3.9412    5.0477   -0.1725 C   0  0  0  1  0  0  0  0  0  0  0  0
   -4.8894    5.3899   -1.1405 C   0  0  0  1  0  0  0  0  0  0  0  0
   -5.1295    4.4781   -2.1454 C   0  0  0  1  0  0  0  0  0  0  0  0
   -4.4599    3.2595   -2.1949 C   0  0  0  1  0  0  0  0  0  0  0  0
   -3.5208    2.9236   -1.2449 C   0  0  0  1  0  0  0  0  0  0  0  0
   -3.2429    3.8291   -0.2153 C   0  0  0  1  0  0  0  0  0  0  0  0
   -4.7346    2.3934   -3.1891 F   0  0  0  1  0  0  0  0  0  0  0  0
   -0.9174    2.3391    0.4186 H   0  0  0  1  0  0  0  0  0  0  0  0
   -0.6717    3.0927    1.9762 H   0  0  0  1  0  0  0  0  0  0  0  0
   -2.0437    5.2812    2.4302 H   0  0  0  1  0  0  0  0  0  0  0  0
   -3.8307    6.6105    1.2180 H   0  0  0  1  0  0  0  0  0  0  0  0
   -5.3947    6.2982   -1.1039 H   0  0  0  1  0  0  0  0  0  0  0  0
   -5.8266    4.7057   -2.8828 H   0  0  0  1  0  0  0  0  0  0  0  0
   -3.0256    2.0102   -1.2923 H   0  0  0  1  0  0  0  0  0  0  0  0
  1  4  1  0  0  0  0
  2  4  1  0  0  0  0
  2  5  2  0  0  0  0
  2  6  1  0  0  0  0
  3  4  1  0  0  0  0
  3  7  1  0  0  0  0
  3  8  1  0  0  0  0
  4 19  1  0  0  0  0
  6  9  1  0  0  0  0
  6 12  1  0  0  0  0
  8 10  1  0  0  0  0
  8 11  2  0  0  0  0
  9 13  1  0  0  0  0
  9 14  1  0  0  0  0
  9 15  1  0  0  0  0
 10 16  1  0  0  0  0
 10 17  1  0  0  0  0
 10 18  1  0  0  0  0
 19 20  1  0  0  0  0
 19 30  1  0  0  0  0
 19 31  1  0  0  0  0
 20 21  4  0  0  0  0
 20 28  4  0  0  0  0
 21 22  4  0  0  0  0
 21 32  1  0  0  0  0
 22 23  4  0  0  0  0
 22 33  1  0  0  0  0
 23 24  4  0  0  0  0
 23 28  4  0  0  0  0
 24 25  4  0  0  0  0
 24 34  1  0  0  0  0
 25 26  4  0  0  0  0
 25 35  1  0  0  0  0
 26 27  4  0  0  0  0
 26 29  1  0  0  0  0
 27 28  4  0  0  0  0
 27 36  1  0  0  0  0
M  END
> <BCLConfClusterSize>
1

> <ConfClashScore>
0 

> <ConfOneFourInteractionScore>
-0.94165 

> <ConfScore>
0.372238 

> <ConfScorePBest>
0.0282304 

> <ConfTolerance>
0.347551 

> <RosettaParamsInstructions>
M  ROOT 3
M  POLY_N_BB 3
M  POLY_CA_BB 4
M  POLY_C_BB 2
M  POLY_O_BB 5
M  POLY_IGNORE 9 10 11 12 13 14 15 16 17 18 
M  POLY_UPPER 6
M  POLY_LOWER 8
M  POLY_CHG 0
M  POLY_PROPERTIES ALPHA_AA L_AA PROTEIN AROMATIC POLYMER 
M  END

$$$$



 36 37  0  0  0  0  0  0  0  0999 V2000
   -2.4540    2.2225    3.0656 H   0  0  0  1  0  0  0  0  0  0  0  0
   -3.1503    0.9143    1.5717 C   0  0  0  1  0  0  0  0  0  0  0  0
   -0.9861    0.7978    2.7848 N   0  0  0  1  0  0  0  0  0  0  0  0
   -2.0255    1.6800    2.2489 C   0  0  0  1  0  0  0  0  0  0  0  0
   -4.2593    1.4026    1.4260 O   0  0  0  1  0  0  0  0  0  0  0  0
   -2.7995   -0.3102    1.1686 N   0  0  0  1  0  0  0  0  0  0  0  0
   -0.0615    1.0245    2.5519 H   0  0  0  1  0  0  0  0  0  0  0  0
   -1.1560   -0.2854    3.5581 C   0  0  0  1  0  0  0  0  0  0  0  0
   -3.7423   -1.2197    0.5346 C   0  0  0  1  0  0  0  0  0  0  0  0
    0.1153   -0.9636    4.0305 C   0  0  0  1  0  0  0  0  0  0  0  0
   -2.2644   -0.7156    3.8742 O   0  0  0  1  0  0  0  0  0  0  0  0
   -1.8753   -0.6062    1.3045 H   0  0  0  1  0  0  0  0  0  0  0  0
   -4.4111   -0.6636   -0.0885 H   0  0  0  1  0  0  0  0  0  0  0  0
   -4.3017   -1.7348    1.2874 H   0  0  0  1  0  0  0  0  0  0  0  0
   -3.2072   -1.9294   -0.0611 H   0  0  0  1  0  0  0  0  0  0  0  0
    0.7099   -1.2371    3.1841 H   0  0  0  1  0  0  0  0  0  0  0  0
   -0.1353   -1.8413    4.5887 H   0  0  0  1  0  0  0  0  0  0  0  0
    0.6683   -0.2907    4.6521 H   0  0  0  1  0  0  0  0  0  0  0  0
   -1.4036    2.7047    1.2989 C   0  0  0  1  0  0  0  0  0  0  0  0
   -2.3546    3.8068    0.9157 C   0  0  0  1  0  0  0  0  0  0  0  0
   -2.5493    4.9873    1.5702 C   0  0  0  1  0  0  0  0  0  0  0  0
   -3.5079    5.7309    0.9308 N   0  0  0  1  0  0  0  0  0  0  0  0
   -3.9412    5.0477   -0.1725 C   0  0  0  1  0  0  0  0  0  0  0  0
   -4.8894    5.3899   -1.1405 C   0  0  0  1  0  0  0  0  0  0  0  0
   -5.1295    4.4781   -2.1454 C   0  0  0  1  0  0  0  0  0  0  0  0
   -4.4599    3.2595   -2.1949 C   0  0  0  1  0  0  0  0  0  0  0  0
   -3.5208    2.9236   -1.2449 C   0  0  0  1  0  0  0  0  0  0  0  0
   -3.2429    3.8291   -0.2153 C   0  0  0  1  0  0  0  0  0  0  0  0
   -4.7346    2.3934   -3.1891 F   0  0  0  1  0  0  0  0  0  0  0  0
   -1.0921    2.1989    0.4089 H   0  0  0  1  0  0  0  0  0  0  0  0
   -0.5523    3.1409    1.7784 H   0  0  0  1  0  0  0  0  0  0  0  0
   -2.0437    5.2812    2.4302 H   0  0  0  1  0  0  0  0  0  0  0  0
   -3.8307    6.6105    1.2180 H   0  0  0  1  0  0  0  0  0  0  0  0
   -5.3947    6.2982   -1.1039 H   0  0  0  1  0  0  0  0  0  0  0  0
   -5.8266    4.7057   -2.8828 H   0  0  0  1  0  0  0  0  0  0  0  0
   -3.0256    2.0102   -1.2923 H   0  0  0  1  0  0  0  0  0  0  0  0
  1  4  1  0  0  0  0
  2  4  1  0  0  0  0
  2  5  2  0  0  0  0
  2  6  1  0  0  0  0
  3  4  1  0  0  0  0
  3  7  1  0  0  0  0
  3  8  1  0  0  0  0
  4 19  1  0  0  0  0
  6  9  1  0  0  0  0
  6 12  1  0  0  0  0
  8 10  1  0  0  0  0
  8 11  2  0  0  0  0
  9 13  1  0  0  0  0
  9 14  1  0  0  0  0
  9 15  1  0  0  0  0
 10 16  1  0  0  0  0
 10 17  1  0  0  0  0
 10 18  1  0  0  0  0
 19 20  1  0  0  0  0
 19 30  1  0  0  0  0
 19 31  1  0  0  0  0
 20 21  4  0  0  0  0
 20 28  4  0  0  0  0
 21 22  4  0  0  0  0
 21 32  1  0  0  0  0
 22 23  4  0  0  0  0
 22 33  1  0  0  0  0
 23 24  4  0  0  0  0
 23 28  4  0  0  0  0
 24 25  4  0  0  0  0
 24 34  1  0  0  0  0
 25 26  4  0  0  0  0
 25 35  1  0  0  0  0
 26 27  4  0  0  0  0
 26 29  1  0  0  0  0
 27 28  4  0  0  0  0
 27 36  1  0  0  0  0
M  END
> <BCLConfClusterSize>
1

> <ConfClashScore>
0 

> <ConfOneFourInteractionScore>
-0.960318 

> <ConfScore>
0.383537 

> <ConfScorePBest>
0.0278646 

> <ConfTolerance>
0.437566 

> <RosettaParamsInstructions>
M  ROOT 3
M  POLY_N_BB 3
M  POLY_CA_BB 4
M  POLY_C_BB 2
M  POLY_O_BB 5
M  POLY_IGNORE 9 10 11 12 13 14 15 16 17 18 
M  POLY_UPPER 6
M  POLY_LOWER 8
M  POLY_CHG 0
M  POLY_PROPERTIES ALPHA_AA L_AA PROTEIN AROMATIC POLYMER 
M  END

$$$$



 36 37  0  0  0  0  0  0  0  0999 V2000
   -2.8994    1.3586    1.8857 H   0  0  0  1  0  0  0  0  0  0  0  0
   -1.1060    0.5244    2.5608 C   0  0  0  1  0  0  0  0  0  0  0  0
   -2.3845    2.3908    3.5661 N   0  0  0  1  0  0  0  0  0  0  0  0
   -2.0000    1.7392    2.3229 C   0  0  0  1  0  0  0  0  0  0  0  0
   -0.9751   -0.3415    1.6967 O   0  0  0  1  0  0  0  0  0  0  0  0
   -0.4733    0.4312    3.7307 N   0  0  0  1  0  0  0  0  0  0  0  0
   -2.1764    3.3381    3.7063 H   0  0  0  1  0  0  0  0  0  0  0  0
   -3.0205    1.7002    4.5166 C   0  0  0  1  0  0  0  0  0  0  0  0
    0.5341   -0.5733    4.0374 C   0  0  0  1  0  0  0  0  0  0  0  0
   -3.4018    2.4844    5.7571 C   0  0  0  1  0  0  0  0  0  0  0  0
   -3.2884    0.5041    4.4100 O   0  0  0  1  0  0  0  0  0  0  0  0
   -0.7011    1.0805    4.4285 H   0  0  0  1  0  0  0  0  0  0  0  0
    0.8861   -1.0153    3.1287 H   0  0  0  1  0  0  0  0  0  0  0  0
    0.1043   -1.3308    4.6591 H   0  0  0  1  0  0  0  0  0  0  0  0
    1.3525   -0.1124    4.5500 H   0  0  0  1  0  0  0  0  0  0  0  0
   -4.3017    3.0324    5.5707 H   0  0  0  1  0  0  0  0  0  0  0  0
   -2.6144    3.1655    6.0042 H   0  0  0  1  0  0  0  0  0  0  0  0
   -3.5583    1.8087    6.5719 H   0  0  0  1  0  0  0  0  0  0  0  0
   -1.4132    2.7010    1.2981 C   0  0  0  1  0  0  0  0  0  0  0  0
   -2.3611    3.8063    0.9162 C   0  0  0  1  0  0  0  0  0  0  0  0
   -2.5401    4.9935    1.5801 C   0  0  0  1  0  0  0  0  0  0  0  0
   -3.5113    5.7430    0.9339 N   0  0  0  1  0  0  0  0  0  0  0  0
   -3.9481    5.0408   -0.1718 C   0  0  0  1  0  0  0  0  0  0  0  0
   -4.8869    5.3837   -1.1395 C   0  0  0  1  0  0  0  0  0  0  0  0
   -5.1355    4.4781   -2.1453 C   0  0  0  1  0  0  0  0  0  0  0  0
   -4.4552    3.2563   -2.1991 C   0  0  0  1  0  0  0  0  0  0  0  0
   -3.5238    2.9211   -1.2499 C   0  0  0  1  0  0  0  0  0  0  0  0
   -3.2472    3.8178   -0.2091 C   0  0  0  1  0  0  0  0  0  0  0  0
   -4.7197    2.3950   -3.2002 F   0  0  0  1  0  0  0  0  0  0  0  0
   -1.1619    2.1482    0.4170 H   0  0  0  1  0  0  0  0  0  0  0  0
   -0.5278    3.1387    1.7097 H   0  0  0  1  0  0  0  0  0  0  0  0
   -2.0267    5.2861    2.4359 H   0  0  0  1  0  0  0  0  0  0  0  0
   -3.8341    6.6245    1.2151 H   0  0  0  1  0  0  0  0  0  0  0  0
   -5.3853    6.2958   -1.1038 H   0  0  0  1  0  0  0  0  0  0  0  0
   -5.8395    4.7050   -2.8765 H   0  0  0  1  0  0  0  0  0  0  0  0
   -3.0270    2.0089   -1.3020 H   0  0  0  1  0  0  0  0  0  0  0  0
  1  4  1  0  0  0  0
  2  4  1  0  0  0  0
  2  5  2  0  0  0  0
  2  6  1  0  0  0  0
  3  4  1  0  0  0  0
  3  7  1  0  0  0  0
  3  8  1  0  0  0  0
  4 19  1  0  0  0  0
  6  9  1  0  0  0  0
  6 12  1  0  0  0  0
  8 10  1  0  0  0  0
  8 11  2  0  0  0  0
  9 13  1  0  0  0  0
  9 14  1  0  0  0  0
  9 15  1  0  0  0  0
 10 16  1  0  0  0  0
 10 17  1  0  0  0  0
 10 18  1  0  0  0  0
 19 20  1  0  0  0  0
 19 30  1  0  0  0  0
 19 31  1  0  0  0  0
 20 21  4  0  0  0  0
 20 28  4  0  0  0  0
 21 22  4  0  0  0  0
 21 32  1  0  0  0  0
 22 23  4  0  0  0  0
 22 33  1  0  0  0  0
 23 24  4  0  0  0  0
 23 28  4  0  0  0  0
 24 25  4  0  0  0  0
 24 34  1  0  0  0  0
 25 26  4  0  0  0  0
 25 35  1  0  0  0  0
 26 27  4  0  0  0  0
 26 29  1  0  0  0  0
 27 28  4  0  0  0  0
 27 36  1  0  0  0  0
M  END
> <BCLConfClusterSize>
1

> <ConfClashScore>
0 

> <ConfOneFourInteractionScore>
-0.956443 

> <ConfScore>
0.38868 

> <ConfScorePBest>
0.0274988 

> <ConfTolerance>
0.288188 

> <RosettaParamsInstructions>
M  ROOT 3
M  POLY_N_BB 3
M  POLY_CA_BB 4
M  POLY_C_BB 2
M  POLY_O_BB 5
M  POLY_IGNORE 9 10 11 12 13 14 15 16 17 18 
M  POLY_UPPER 6
M  POLY_LOWER 8
M  POLY_CHG 0
M  POLY_PROPERTIES ALPHA_AA L_AA PROTEIN AROMATIC POLYMER 
M  END

$$$$



 36 37  0  0  0  0  0  0  0  0999 V2000
    0.3426    3.8563    1.6079 H   0  0  0  1  0  0  0  0  0  0  0  0
    0.9478    1.8534    1.3099 C   0  0  0  1  0  0  0  0  0  0  0  0
    0.2077    3.4181   -0.4086 N   0  0  0  1  0  0  0  0  0  0  0  0
    0.0500    3.0356    0.9867 C   0  0  0  1  0  0  0  0  0  0  0  0
    1.3968    1.6844    2.4405 O   0  0  0  1  0  0  0  0  0  0  0  0
    1.2092    1.0231    0.2880 N   0  0  0  1  0  0  0  0  0  0  0  0
   -0.5943    3.5622   -0.9530 H   0  0  0  1  0  0  0  0  0  0  0  0
    1.4078    3.5795   -0.9731 C   0  0  0  1  0  0  0  0  0  0  0  0
    2.0001   -0.1874    0.4526 C   0  0  0  1  0  0  0  0  0  0  0  0
    1.3814    3.9918   -2.4431 C   0  0  0  1  0  0  0  0  0  0  0  0
    2.4702    3.3475   -0.3994 O   0  0  0  1  0  0  0  0  0  0  0  0
    0.8551    1.2396   -0.5998 H   0  0  0  1  0  0  0  0  0  0  0  0
    1.6699   -0.7141    1.3235 H   0  0  0  1  0  0  0  0  0  0  0  0
    3.0319    0.0733    0.5636 H   0  0  0  1  0  0  0  0  0  0  0  0
    1.8800   -0.8114   -0.4082 H   0  0  0  1  0  0  0  0  0  0  0  0
    1.4455    3.1198   -3.0599 H   0  0  0  1  0  0  0  0  0  0  0  0
    2.2116    4.6350   -2.6478 H   0  0  0  1  0  0  0  0  0  0  0  0
    0.4685    4.5096   -2.6517 H   0  0  0  1  0  0  0  0  0  0  0  0
   -1.4036    2.7047    1.2989 C   0  0  0  1  0  0  0  0  0  0  0  0
   -2.3546    3.8068    0.9157 C   0  0  0  1  0  0  0  0  0  0  0  0
   -2.5493    4.9873    1.5702 C   0  0  0  1  0  0  0  0  0  0  0  0
   -3.5079    5.7309    0.9308 N   0  0  0  1  0  0  0  0  0  0  0  0
   -3.9412    5.0477   -0.1725 C   0  0  0  1  0  0  0  0  0  0  0  0
   -4.8894    5.3899   -1.1405 C   0  0  0  1  0  0  0  0  0  0  0  0
   -5.1295    4.4781   -2.1454 C   0  0  0  1  0  0  0  0  0  0  0  0
   -4.4599    3.2595   -2.1949 C   0  0  0  1  0  0  0  0  0  0  0  0
   -3.5208    2.9236   -1.2449 C   0  0  0  1  0  0  0  0  0  0  0  0
   -3.2429    3.8291   -0.2153 C   0  0  0  1  0  0  0  0  0  0  0  0
   -4.7346    2.3934   -3.1891 F   0  0  0  1  0  0  0  0  0  0  0  0
   -1.4942    2.5269    2.3501 H   0  0  0  1  0  0  0  0  0  0  0  0
   -1.6742    1.8195    0.7622 H   0  0  0  1  0  0  0  0  0  0  0  0
   -2.0437    5.2812    2.4302 H   0  0  0  1  0  0  0  0  0  0  0  0
   -3.8307    6.6105    1.2180 H   0  0  0  1  0  0  0  0  0  0  0  0
   -5.3947    6.2982   -1.1039 H   0  0  0  1  0  0  0  0  0  0  0  0
   -5.8266    4.7057   -2.8828 H   0  0  0  1  0  0  0  0  0  0  0  0
   -3.0256    2.0102   -1.2923 H   0  0  0  1  0  0  0  0  0  0  0  0
  1  4  1  0  0  0  0
  2  4  1  0  0  0  0
  2  5  2  0  0  0  0
  2  6  1  0  0  0  0
  3  4  1  0  0  0  0
  3  7  1  0  0  0  0
  3  8  1  0  0  0  0
  4 19  1  0  0  0  0
  6  9  1  0  0  0  0
  6 12  1  0  0  0  0
  8 10  1  0  0  0  0
  8 11  2  0  0  0  0
  9 13  1  0  0  0  0
  9 14  1  0  0  0  0
  9 15  1  0  0  0  0
 10 16  1  0  0  0  0
 10 17  1  0  0  0  0
 10 18  1  0  0  0  0
 19 20  1  0  0  0  0
 19 30  1  0  0  0  0
 19 31  1  0  0  0  0
 20 21  4  0  0  0  0
 20 28  4  0  0  0  0
 21 22  4  0  0  0  0
 21 32  1  0  0  0  0
 22 23  4  0  0  0  0
 22 33  1  0  0  0  0
 23 24  4  0  0  0  0
 23 28  4  0  0  0  0
 24 25  4  0  0  0  0
 24 34  1  0  0  0  0
 25 26  4  0  0  0  0
 25 35  1  0  0  0  0
 26 27  4  0  0  0  0
 26 29  1  0  0  0  0
 27 28  4  0  0  0  0
 27 36  1  0  0  0  0
M  END
> <BCLConfClusterSize>
1

> <ConfClashScore>
0 

> <ConfOneFourInteractionScore>
-0.94165 

> <ConfScore>
0.399593 

> <ConfScorePBest>
0.027133 

> <ConfTolerance>
0.55287 

> <RosettaParamsInstructions>
M  ROOT 3
M  POLY_N_BB 3
M  POLY_CA_BB 4
M  POLY_C_BB 2
M  POLY_O_BB 5
M  POLY_IGNORE 9 10 11 12 13 14 15 16 17 18 
M  POLY_UPPER 6
M  POLY_LOWER 8
M  POLY_CHG 0
M  POLY_PROPERTIES ALPHA_AA L_AA PROTEIN AROMATIC POLYMER 
M  END

$$$$



 36 37  0  0  0  0  0  0  0  0999 V2000
   -0.1948    2.9566   -0.4212 H   0  0  0  1  0  0  0  0  0  0  0  0
    0.5777    4.2198    1.0925 C   0  0  0  1  0  0  0  0  0  0  0  0
    0.8467    1.7960    0.9372 N   0  0  0  1  0  0  0  0  0  0  0  0
   -0.0464    2.9052    0.6372 C   0  0  0  1  0  0  0  0  0  0  0  0
    0.3940    5.2685    0.4761 O   0  0  0  1  0  0  0  0  0  0  0  0
    1.3265    4.1065    2.2068 N   0  0  0  1  0  0  0  0  0  0  0  0
    0.5108    1.0515    1.4787 H   0  0  0  1  0  0  0  0  0  0  0  0
    2.1086    1.7574    0.4999 C   0  0  0  1  0  0  0  0  0  0  0  0
    2.0497    5.2816    2.6694 C   0  0  0  1  0  0  0  0  0  0  0  0
    2.9258    0.5626    0.9512 C   0  0  0  1  0  0  0  0  0  0  0  0
    2.5898    2.6191   -0.2172 O   0  0  0  1  0  0  0  0  0  0  0  0
    1.3826    3.2569    2.6921 H   0  0  0  1  0  0  0  0  0  0  0  0
    2.8891    5.4591    2.0300 H   0  0  0  1  0  0  0  0  0  0  0  0
    2.3921    5.1185    3.6700 H   0  0  0  1  0  0  0  0  0  0  0  0
    1.3997    6.1313    2.6484 H   0  0  0  1  0  0  0  0  0  0  0  0
    3.1927    0.6807    1.9807 H   0  0  0  1  0  0  0  0  0  0  0  0
    3.8140    0.4938    0.3584 H   0  0  0  1  0  0  0  0  0  0  0  0
    2.3476   -0.3299    0.8331 H   0  0  0  1  0  0  0  0  0  0  0  0
   -1.4132    2.7010    1.2981 C   0  0  0  1  0  0  0  0  0  0  0  0
   -2.3611    3.8063    0.9162 C   0  0  0  1  0  0  0  0  0  0  0  0
   -2.5401    4.9935    1.5801 C   0  0  0  1  0  0  0  0  0  0  0  0
   -3.5113    5.7430    0.9339 N   0  0  0  1  0  0  0  0  0  0  0  0
   -3.9481    5.0408   -0.1718 C   0  0  0  1  0  0  0  0  0  0  0  0
   -4.8869    5.3837   -1.1395 C   0  0  0  1  0  0  0  0  0  0  0  0
   -5.1355    4.4781   -2.1453 C   0  0  0  1  0  0  0  0  0  0  0  0
   -4.4552    3.2563   -2.1991 C   0  0  0  1  0  0  0  0  0  0  0  0
   -3.5238    2.9211   -1.2499 C   0  0  0  1  0  0  0  0  0  0  0  0
   -3.2472    3.8178   -0.2091 C   0  0  0  1  0  0  0  0  0  0  0  0
   -4.7197    2.3950   -3.2002 F   0  0  0  1  0  0  0  0  0  0  0  0
   -1.2915    2.6948    2.3611 H   0  0  0  1  0  0  0  0  0  0  0  0
   -1.8203    1.7641    0.9797 H   0  0  0  1  0  0  0  0  0  0  0  0
   -2.0267    5.2861    2.4359 H   0  0  0  1  0  0  0  0  0  0  0  0
   -3.8341    6.6245    1.2151 H   0  0  0  1  0  0  0  0  0  0  0  0
   -5.3853    6.2958   -1.1038 H   0  0  0  1  0  0  0  0  0  0  0  0
   -5.8395    4.7050   -2.8765 H   0  0  0  1  0  0  0  0  0  0  0  0
   -3.0270    2.0089   -1.3020 H   0  0  0  1  0  0  0  0  0  0  0  0
  1  4  1  0  0  0  0
  2  4  1  0  0  0  0
  2  5  2  0  0  0  0
  2  6  1  0  0  0  0
  3  4  1  0  0  0  0
  3  7  1  0  0  0  0
  3  8  1  0  0  0  0
  4 19  1  0  0  0  0
  6  9  1  0  0  0  0
  6 12  1  0  0  0  0
  8 10  1  0  0  0  0
  8 11  2  0  0  0  0
  9 13  1  0  0  0  0
  9 14  1  0  0  0  0
  9 15  1  0  0  0  0
 10 16  1  0  0  0  0
 10 17  1  0  0  0  0
 10 18  1  0  0  0  0
 19 20  1  0  0  0  0
 19 30  1  0  0  0  0
 19 31  1  0  0  0  0
 20 21  4  0  0  0  0
 20 28  4  0  0  0  0
 21 22  4  0  0  0  0
 21 32  1  0  0  0  0
 22 23  4  0  0  0  0
 22 33  1  0  0  0  0
 23 24  4  0  0  0  0
 23 28  4  0  0  0  0
 24 25  4  0  0  0  0
 24 34  1  0  0  0  0
 25 26  4  0  0  0  0
 25 35  1  0  0  0  0
 26 27  4  0  0  0  0
 26 29  1  0  0  0  0
 27 28  4  0  0  0  0
 27 36  1  0  0  0  0
M  END
> <BCLConfClusterSize>
1

> <ConfClashScore>
0 

> <ConfOneFourInteractionScore>
-0.956443 

> <ConfScore>
0.411857 

> <ConfScorePBest>
0.0267672 

> <ConfTolerance>
0.315513 

> <RosettaParamsInstructions>
M  ROOT 3
M  POLY_N_BB 3
M  POLY_CA_BB 4
M  POLY_C_BB 2
M  POLY_O_BB 5
M  POLY_IGNORE 9 10 11 12 13 14 15 16 17 18 
M  POLY_UPPER 6
M  POLY_LOWER 8
M  POLY_CHG 0
M  POLY_PROPERTIES ALPHA_AA L_AA PROTEIN AROMATIC POLYMER 
M  END

$$$$



 36 37  0  0  0  0  0  0  0  0999 V2000
   -2.9066    1.2168    1.0498 H   0  0  0  1  0  0  0  0  0  0  0  0
   -1.1877    0.2394    1.7832 C   0  0  0  1  0  0  0  0  0  0  0  0
   -2.7342    1.7093    3.0475 N   0  0  0  1  0  0  0  0  0  0  0  0
   -2.1300    1.4270    1.7553 C   0  0  0  1  0  0  0  0  0  0  0  0
   -1.0125   -0.4535    0.7938 O   0  0  0  1  0  0  0  0  0  0  0  0
   -0.5750    0.0118    2.9485 N   0  0  0  1  0  0  0  0  0  0  0  0
   -2.6075    2.6067    3.4206 H   0  0  0  1  0  0  0  0  0  0  0  0
   -3.4521    0.8339    3.7676 C   0  0  0  1  0  0  0  0  0  0  0  0
    0.4225   -1.0353    3.1109 C   0  0  0  1  0  0  0  0  0  0  0  0
   -3.8941    1.2467    5.1533 C   0  0  0  1  0  0  0  0  0  0  0  0
   -3.7434   -0.2728    3.3158 O   0  0  0  1  0  0  0  0  0  0  0  0
   -0.8053    0.5695    3.7208 H   0  0  0  1  0  0  0  0  0  0  0  0
    1.0406   -1.0782    2.2385 H   0  0  0  1  0  0  0  0  0  0  0  0
   -0.0678   -1.9766    3.2469 H   0  0  0  1  0  0  0  0  0  0  0  0
    1.0281   -0.8211    3.9666 H   0  0  0  1  0  0  0  0  0  0  0  0
   -3.9970    2.3109    5.1931 H   0  0  0  1  0  0  0  0  0  0  0  0
   -3.1634    0.9323    5.8689 H   0  0  0  1  0  0  0  0  0  0  0  0
   -4.8346    0.7889    5.3785 H   0  0  0  1  0  0  0  0  0  0  0  0
   -1.4132    2.7010    1.2981 C   0  0  0  1  0  0  0  0  0  0  0  0
   -2.3611    3.8063    0.9162 C   0  0  0  1  0  0  0  0  0  0  0  0
   -2.5401    4.9935    1.5801 C   0  0  0  1  0  0  0  0  0  0  0  0
   -3.5113    5.7430    0.9339 N   0  0  0  1  0  0  0  0  0  0  0  0
   -3.9481    5.0408   -0.1718 C   0  0  0  1  0  0  0  0  0  0  0  0
   -4.8869    5.3837   -1.1395 C   0  0  0  1  0  0  0  0  0  0  0  0
   -5.1355    4.4781   -2.1453 C   0  0  0  1  0  0  0  0  0  0  0  0
   -4.4552    3.2563   -2.1991 C   0  0  0  1  0  0  0  0  0  0  0  0
   -3.5238    2.9211   -1.2499 C   0  0  0  1  0  0  0  0  0  0  0  0
   -3.2472    3.8178   -0.2091 C   0  0  0  1  0  0  0  0  0  0  0  0
   -4.7197    2.3950   -3.2002 F   0  0  0  1  0  0  0  0  0  0  0  0
   -0.8064    2.4643    0.4491 H   0  0  0  1  0  0  0  0  0  0  0  0
   -0.7908    3.0469    2.0967 H   0  0  0  1  0  0  0  0  0  0  0  0
   -2.0267    5.2861    2.4359 H   0  0  0  1  0  0  0  0  0  0  0  0
   -3.8341    6.6245    1.2151 H   0  0  0  1  0  0  0  0  0  0  0  0
   -5.3853    6.2958   -1.1038 H   0  0  0  1  0  0  0  0  0  0  0  0
   -5.8395    4.7050   -2.8765 H   0  0  0  1  0  0  0  0  0  0  0  0
   -3.0270    2.0089   -1.3020 H   0  0  0  1  0  0  0  0  0  0  0  0
  1  4  1  0  0  0  0
  2  4  1  0  0  0  0
  2  5  2  0  0  0  0
  2  6  1  0  0  0  0
  3  4  1  0  0  0  0
  3  7  1  0  0  0  0
  3  8  1  0  0  0  0
  4 19  1  0  0  0  0
  6  9  1  0  0  0  0
  6 12  1  0  0  0  0
  8 10  1  0  0  0  0
  8 11  2  0  0  0  0
  9 13  1  0  0  0  0
  9 14  1  0  0  0  0
  9 15  1  0  0  0  0
 10 16  1  0  0  0  0
 10 17  1  0  0  0  0
 10 18  1  0  0  0  0
 19 20  1  0  0  0  0
 19 30  1  0  0  0  0
 19 31  1  0  0  0  0
 20 21  4  0  0  0  0
 20 28  4  0  0  0  0
 21 22  4  0  0  0  0
 21 32  1  0  0  0  0
 22 23  4  0  0  0  0
 22 33  1  0  0  0  0
 23 24  4  0  0  0  0
 23 28  4  0  0  0  0
 24 25  4  0  0  0  0
 24 34  1  0  0  0  0
 25 26  4  0  0  0  0
 25 35  1  0  0  0  0
 26 27  4  0  0  0  0
 26 29  1  0  0  0  0
 27 28  4  0  0  0  0
 27 36  1  0  0  0  0
M  END
> <BCLConfClusterSize>
1

> <ConfClashScore>
0 

> <ConfOneFourInteractionScore>
-0.956443 

> <ConfScore>
0.422253 

> <ConfScorePBest>
0.0264014 

> <ConfTolerance>
0.547335 

> <RosettaParamsInstructions>
M  ROOT 3
M  POLY_N_BB 3
M  POLY_CA_BB 4
M  POLY_C_BB 2
M  POLY_O_BB 5
M  POLY_IGNORE 9 10 11 12 13 14 15 16 17 18 
M  POLY_UPPER 6
M  POLY_LOWER 8
M  POLY_CHG 0
M  POLY_PROPERTIES ALPHA_AA L_AA PROTEIN AROMATIC POLYMER 
M  END

$$$$



 36 37  0  0  0  0  0  0  0  0999 V2000
   -2.7336    1.7177    2.6223 H   0  0  0  1  0  0  0  0  0  0  0  0
   -0.8095    0.8869    2.8933 C   0  0  0  1  0  0  0  0  0  0  0  0
   -1.6311    3.0944    3.6954 N   0  0  0  1  0  0  0  0  0  0  0  0
   -1.7271    2.0789    2.6591 C   0  0  0  1  0  0  0  0  0  0  0  0
   -1.1606   -0.2504    2.5819 O   0  0  0  1  0  0  0  0  0  0  0  0
    0.3914    1.1144    3.4485 N   0  0  0  1  0  0  0  0  0  0  0  0
   -1.4053    4.0128    3.4382 H   0  0  0  1  0  0  0  0  0  0  0  0
   -1.8419    2.8164    4.9987 C   0  0  0  1  0  0  0  0  0  0  0  0
    1.3983    0.0716    3.5775 C   0  0  0  1  0  0  0  0  0  0  0  0
   -1.8728    3.9733    5.9784 C   0  0  0  1  0  0  0  0  0  0  0  0
   -2.0047    1.6592    5.3834 O   0  0  0  1  0  0  0  0  0  0  0  0
    0.5972    2.0140    3.7783 H   0  0  0  1  0  0  0  0  0  0  0  0
    0.9923   -0.7506    4.1289 H   0  0  0  1  0  0  0  0  0  0  0  0
    2.2506    0.4611    4.0941 H   0  0  0  1  0  0  0  0  0  0  0  0
    1.6923   -0.2623    2.6044 H   0  0  0  1  0  0  0  0  0  0  0  0
   -1.5218    3.6421    6.9334 H   0  0  0  1  0  0  0  0  0  0  0  0
   -2.8758    4.3338    6.0728 H   0  0  0  1  0  0  0  0  0  0  0  0
   -1.2426    4.7604    5.6204 H   0  0  0  1  0  0  0  0  0  0  0  0
   -1.4036    2.7047    1.2989 C   0  0  0  1  0  0  0  0  0  0  0  0
   -2.3546    3.8068    0.9157 C   0  0  0  1  0  0  0  0  0  0  0  0
   -2.5493    4.9873    1.5702 C   0  0  0  1  0  0  0  0  0  0  0  0
   -3.5079    5.7309    0.9308 N   0  0  0  1  0  0  0  0  0  0  0  0
   -3.9412    5.0477   -0.1725 C   0  0  0  1  0  0  0  0  0  0  0  0
   -4.8894    5.3899   -1.1405 C   0  0  0  1  0  0  0  0  0  0  0  0
   -5.1295    4.4781   -2.1454 C   0  0  0  1  0  0  0  0  0  0  0  0
   -4.4599    3.2595   -2.1949 C   0  0  0  1  0  0  0  0  0  0  0  0
   -3.5208    2.9236   -1.2449 C   0  0  0  1  0  0  0  0  0  0  0  0
   -3.2429    3.8291   -0.2153 C   0  0  0  1  0  0  0  0  0  0  0  0
   -4.7346    2.3934   -3.1891 F   0  0  0  1  0  0  0  0  0  0  0  0
   -1.4502    1.9397    0.5522 H   0  0  0  1  0  0  0  0  0  0  0  0
   -0.4129    3.1074    1.3362 H   0  0  0  1  0  0  0  0  0  0  0  0
   -2.0437    5.2812    2.4302 H   0  0  0  1  0  0  0  0  0  0  0  0
   -3.8307    6.6105    1.2180 H   0  0  0  1  0  0  0  0  0  0  0  0
   -5.3947    6.2982   -1.1039 H   0  0  0  1  0  0  0  0  0  0  0  0
   -5.8266    4.7057   -2.8828 H   0  0  0  1  0  0  0  0  0  0  0  0
   -3.0256    2.0102   -1.2923 H   0  0  0  1  0  0  0  0  0  0  0  0
  1  4  1  0  0  0  0
  2  4  1  0  0  0  0
  2  5  2  0  0  0  0
  2  6  1  0  0  0  0
  3  4  1  0  0  0  0
  3  7  1  0  0  0  0
  3  8  1  0  0  0  0
  4 19  1  0  0  0  0
  6  9  1  0  0  0  0
  6 12  1  0  0  0  0
  8 10  1  0  0  0  0
  8 11  2  0  0  0  0
  9 13  1  0  0  0  0
  9 14  1  0  0  0  0
  9 15  1  0  0  0  0
 10 16  1  0  0  0  0
 10 17  1  0  0  0  0
 10 18  1  0  0  0  0
 19 20  1  0  0  0  0
 19 30  1  0  0  0  0
 19 31  1  0  0  0  0
 20 21  4  0  0  0  0
 20 28  4  0  0  0  0
 21 22  4  0  0  0  0
 21 32  1  0  0  0  0
 22 23  4  0  0  0  0
 22 33  1  0  0  0  0
 23 24  4  0  0  0  0
 23 28  4  0  0  0  0
 24 25  4  0  0  0  0
 24 34  1  0  0  0  0
 25 26  4  0  0  0  0
 25 35  1  0  0  0  0
 26 27  4  0  0  0  0
 26 29  1  0  0  0  0
 27 28  4  0  0  0  0
 27 36  1  0  0  0  0
M  END
> <BCLConfClusterSize>
1

> <ConfClashScore>
0 

> <ConfOneFourInteractionScore>
-0.956443 

> <ConfScore>
0.441392 

> <ConfScorePBest>
0.0260356 

> <ConfTolerance>
0.584146 

> <RosettaParamsInstructions>
M  ROOT 3
M  POLY_N_BB 3
M  POLY_CA_BB 4
M  POLY_C_BB 2
M  POLY_O_BB 5
M  POLY_IGNORE 9 10 11 12 13 14 15 16 17 18 
M  POLY_UPPER 6
M  POLY_LOWER 8
M  POLY_CHG 0
M  POLY_PROPERTIES ALPHA_AA L_AA PROTEIN AROMATIC POLYMER 
M  END

$$$$



 36 37  0  0  0  0  0  0  0  0999 V2000
   -1.3030    3.3438    3.2956 H   0  0  0  1  0  0  0  0  0  0  0  0
    0.2830    1.9984    3.1146 C   0  0  0  1  0  0  0  0  0  0  0  0
    0.1970    4.3181    2.2733 N   0  0  0  1  0  0  0  0  0  0  0  0
   -0.5905    3.0951    2.5371 C   0  0  0  1  0  0  0  0  0  0  0  0
   -0.1787    1.1481    3.8745 O   0  0  0  1  0  0  0  0  0  0  0  0
    1.5644    2.0231    2.7450 N   0  0  0  1  0  0  0  0  0  0  0  0
    0.2944    4.6276    1.3485 H   0  0  0  1  0  0  0  0  0  0  0  0
    0.7796    5.0150    3.2501 C   0  0  0  1  0  0  0  0  0  0  0  0
    2.5363    1.0621    3.2447 C   0  0  0  1  0  0  0  0  0  0  0  0
    1.5420    6.2508    2.8133 C   0  0  0  1  0  0  0  0  0  0  0  0
    0.7135    4.6912    4.4352 O   0  0  0  1  0  0  0  0  0  0  0  0
    1.8617    2.7124    2.1150 H   0  0  0  1  0  0  0  0  0  0  0  0
    2.0590    0.1161    3.3939 H   0  0  0  1  0  0  0  0  0  0  0  0
    2.9362    1.4101    4.1741 H   0  0  0  1  0  0  0  0  0  0  0  0
    3.3283    0.9534    2.5334 H   0  0  0  1  0  0  0  0  0  0  0  0
    1.7677    6.1809    1.7697 H   0  0  0  1  0  0  0  0  0  0  0  0
    2.4524    6.3235    3.3708 H   0  0  0  1  0  0  0  0  0  0  0  0
    0.9438    7.1200    2.9912 H   0  0  0  1  0  0  0  0  0  0  0  0
   -1.4036    2.7047    1.2989 C   0  0  0  1  0  0  0  0  0  0  0  0
   -2.3546    3.8068    0.9157 C   0  0  0  1  0  0  0  0  0  0  0  0
   -2.5493    4.9873    1.5702 C   0  0  0  1  0  0  0  0  0  0  0  0
   -3.5079    5.7309    0.9308 N   0  0  0  1  0  0  0  0  0  0  0  0
   -3.9412    5.0477   -0.1725 C   0  0  0  1  0  0  0  0  0  0  0  0
   -4.8894    5.3899   -1.1405 C   0  0  0  1  0  0  0  0  0  0  0  0
   -5.1295    4.4781   -2.1454 C   0  0  0  1  0  0  0  0  0  0  0  0
   -4.4599    3.2595   -2.1949 C   0  0  0  1  0  0  0  0  0  0  0  0
   -3.5208    2.9236   -1.2449 C   0  0  0  1  0  0  0  0  0  0  0  0
   -3.2429    3.8291   -0.2153 C   0  0  0  1  0  0  0  0  0  0  0  0
   -4.7346    2.3934   -3.1891 F   0  0  0  1  0  0  0  0  0  0  0  0
   -1.9623    1.8173    1.5115 H   0  0  0  1  0  0  0  0  0  0  0  0
   -0.7350    2.5193    0.4843 H   0  0  0  1  0  0  0  0  0  0  0  0
   -2.0437    5.2812    2.4302 H   0  0  0  1  0  0  0  0  0  0  0  0
   -3.8307    6.6105    1.2180 H   0  0  0  1  0  0  0  0  0  0  0  0
   -5.3947    6.2982   -1.1039 H   0  0  0  1  0  0  0  0  0  0  0  0
   -5.8266    4.7057   -2.8828 H   0  0  0  1  0  0  0  0  0  0  0  0
   -3.0256    2.0102   -1.2923 H   0  0  0  1  0  0  0  0  0  0  0  0
  1  4  1  0  0  0  0
  2  4  1  0  0  0  0
  2  5  2  0  0  0  0
  2  6  1  0  0  0  0
  3  4  1  0  0  0  0
  3  7  1  0  0  0  0
  3  8  1  0  0  0  0
  4 19  1  0  0  0  0
  6  9  1  0  0  0  0
  6 12  1  0  0  0  0
  8 10  1  0  0  0  0
  8 11  2  0  0  0  0
  9 13  1  0  0  0  0
  9 14  1  0  0  0  0
  9 15  1  0  0  0  0
 10 16  1  0  0  0  0
 10 17  1  0  0  0  0
 10 18  1  0  0  0  0
 19 20  1  0  0  0  0
 19 30  1  0  0  0  0
 19 31  1  0  0  0  0
 20 21  4  0  0  0  0
 20 28  4  0  0  0  0
 21 22  4  0  0  0  0
 21 32  1  0  0  0  0
 22 23  4  0  0  0  0
 22 33  1  0  0  0  0
 23 24  4  0  0  0  0
 23 28  4  0  0  0  0
 24 25  4  0  0  0  0
 24 34  1  0  0  0  0
 25 26  4  0  0  0  0
 25 35  1  0  0  0  0
 26 27  4  0  0  0  0
 26 29  1  0  0  0  0
 27 28  4  0  0  0  0
 27 36  1  0  0  0  0
M  END
> <BCLConfClusterSize>
1

> <ConfClashScore>
0 

> <ConfOneFourInteractionScore>
-0.949001 

> <ConfScore>
0.44199 

> <ConfScorePBest>
0.0256698 

> <ConfTolerance>
0.547603 

> <RosettaParamsInstructions>
M  ROOT 3
M  POLY_N_BB 3
M  POLY_CA_BB 4
M  POLY_C_BB 2
M  POLY_O_BB 5
M  POLY_IGNORE 9 10 11 12 13 14 15 16 17 18 
M  POLY_UPPER 6
M  POLY_LOWER 8
M  POLY_CHG 0
M  POLY_PROPERTIES ALPHA_AA L_AA PROTEIN AROMATIC POLYMER 
M  END

$$$$



 36 37  0  0  0  0  0  0  0  0999 V2000
    0.3011    3.7020    0.6105 H   0  0  0  1  0  0  0  0  0  0  0  0
    0.9571    1.7565    0.9997 C   0  0  0  1  0  0  0  0  0  0  0  0
   -0.3109    2.5013   -0.9281 N   0  0  0  1  0  0  0  0  0  0  0  0
   -0.1038    2.7182    0.4967 C   0  0  0  1  0  0  0  0  0  0  0  0
    0.7352    0.5495    1.0863 O   0  0  0  1  0  0  0  0  0  0  0  0
    2.1274    2.3070    1.3351 N   0  0  0  1  0  0  0  0  0  0  0  0
   -0.7036    1.6489   -1.2101 H   0  0  0  1  0  0  0  0  0  0  0  0
    0.0007    3.3916   -1.8767 C   0  0  0  1  0  0  0  0  0  0  0  0
    3.2520    1.5142    1.8089 C   0  0  0  1  0  0  0  0  0  0  0  0
   -0.3767    3.0041   -3.2932 C   0  0  0  1  0  0  0  0  0  0  0  0
    0.5578    4.4614   -1.6343 O   0  0  0  1  0  0  0  0  0  0  0  0
    2.2321    3.2784    1.2593 H   0  0  0  1  0  0  0  0  0  0  0  0
    2.8881    0.6651    2.3488 H   0  0  0  1  0  0  0  0  0  0  0  0
    3.8626    2.1114    2.4534 H   0  0  0  1  0  0  0  0  0  0  0  0
    3.8321    1.1832    0.9730 H   0  0  0  1  0  0  0  0  0  0  0  0
    0.0284    2.0400   -3.5198 H   0  0  0  1  0  0  0  0  0  0  0  0
    0.0177    3.7262   -3.9773 H   0  0  0  1  0  0  0  0  0  0  0  0
   -1.4425    2.9727   -3.3822 H   0  0  0  1  0  0  0  0  0  0  0  0
   -1.4077    2.6949    1.3005 C   0  0  0  1  0  0  0  0  0  0  0  0
   -2.3615    3.8069    0.9162 C   0  0  0  1  0  0  0  0  0  0  0  0
   -2.5406    4.9942    1.5800 C   0  0  0  1  0  0  0  0  0  0  0  0
   -3.5119    5.7435    0.9336 N   0  0  0  1  0  0  0  0  0  0  0  0
   -3.9486    5.0412   -0.1720 C   0  0  0  1  0  0  0  0  0  0  0  0
   -4.8873    5.3839   -1.1398 C   0  0  0  1  0  0  0  0  0  0  0  0
   -5.1358    4.4783   -2.1456 C   0  0  0  1  0  0  0  0  0  0  0  0
   -4.4554    3.2566   -2.1992 C   0  0  0  1  0  0  0  0  0  0  0  0
   -3.5241    2.9214   -1.2499 C   0  0  0  1  0  0  0  0  0  0  0  0
   -3.2475    3.8183   -0.2092 C   0  0  0  1  0  0  0  0  0  0  0  0
   -4.7198    2.3951   -3.2002 F   0  0  0  1  0  0  0  0  0  0  0  0
   -1.1694    2.7943    2.3389 H   0  0  0  1  0  0  0  0  0  0  0  0
   -1.8938    1.7564    1.1339 H   0  0  0  1  0  0  0  0  0  0  0  0
   -2.0273    5.2869    2.4358 H   0  0  0  1  0  0  0  0  0  0  0  0
   -3.8347    6.6251    1.2148 H   0  0  0  1  0  0  0  0  0  0  0  0
   -5.3857    6.2961   -1.1042 H   0  0  0  1  0  0  0  0  0  0  0  0
   -5.8398    4.7051   -2.8767 H   0  0  0  1  0  0  0  0  0  0  0  0
   -3.0272    2.0093   -1.3019 H   0  0  0  1  0  0  0  0  0  0  0  0
  1  4  1  0  0  0  0
  2  4  1  0  0  0  0
  2  5  2  0  0  0  0
  2  6  1  0  0  0  0
  3  4  1  0  0  0  0
  3  7  1  0  0  0  0
  3  8  1  0  0  0  0
  4 19  1  0  0  0  0
  6  9  1  0  0  0  0
  6 12  1  0  0  0  0
  8 10  1  0  0  0  0
  8 11  2  0  0  0  0
  9 13  1  0  0  0  0
  9 14  1  0  0  0  0
  9 15  1  0  0  0  0
 10 16  1  0  0  0  0
 10 17  1  0  0  0  0
 10 18  1  0  0  0  0
 19 20  1  0  0  0  0
 19 30  1  0  0  0  0
 19 31  1  0  0  0  0
 20 21  4  0  0  0  0
 20 28  4  0  0  0  0
 21 22  4  0  0  0  0
 21 32  1  0  0  0  0
 22 23  4  0  0  0  0
 22 33  1  0  0  0  0
 23 24  4  0  0  0  0
 23 28  4  0  0  0  0
 24 25  4  0  0  0  0
 24 34  1  0  0  0  0
 25 26  4  0  0  0  0
 25 35  1  0  0  0  0
 26 27  4  0  0  0  0
 26 29  1  0  0  0  0
 27 28  4  0  0  0  0
 27 36  1  0  0  0  0
M  END
> <BCLConfClusterSize>
1

> <ConfClashScore>
0 

> <ConfOneFourInteractionScore>
-0.978947 

> <ConfScore>
0.480071 

> <ConfScorePBest>
0.025304 

> <ConfTolerance>
0.398192 

> <RosettaParamsInstructions>
M  ROOT 3
M  POLY_N_BB 3
M  POLY_CA_BB 4
M  POLY_C_BB 2
M  POLY_O_BB 5
M  POLY_IGNORE 9 10 11 12 13 14 15 16 17 18 
M  POLY_UPPER 6
M  POLY_LOWER 8
M  POLY_CHG 0
M  POLY_PROPERTIES ALPHA_AA L_AA PROTEIN AROMATIC POLYMER 
M  END

$$$$



 36 37  0  0  0  0  0  0  0  0999 V2000
    0.3584    3.7633    0.8400 H   0  0  0  1  0  0  0  0  0  0  0  0
    0.9395    1.7702    1.1122 C   0  0  0  1  0  0  0  0  0  0  0  0
   -0.1646    2.7347   -0.8544 N   0  0  0  1  0  0  0  0  0  0  0  0
   -0.0431    2.8024    0.5942 C   0  0  0  1  0  0  0  0  0  0  0  0
    1.0026    0.6469    0.6198 O   0  0  0  1  0  0  0  0  0  0  0  0
    1.7206    2.1674    2.1292 N   0  0  0  1  0  0  0  0  0  0  0  0
   -1.0228    2.4676   -1.2451 H   0  0  0  1  0  0  0  0  0  0  0  0
    0.8531    3.0240   -1.6702 C   0  0  0  1  0  0  0  0  0  0  0  0
    2.8316    1.3634    2.6161 C   0  0  0  1  0  0  0  0  0  0  0  0
    0.5315    3.0225   -3.1476 C   0  0  0  1  0  0  0  0  0  0  0  0
    1.9862    3.2780   -1.2637 O   0  0  0  1  0  0  0  0  0  0  0  0
    1.5361    3.0287    2.5587 H   0  0  0  1  0  0  0  0  0  0  0  0
    3.1806    0.7243    1.8320 H   0  0  0  1  0  0  0  0  0  0  0  0
    2.5050    0.7676    3.4427 H   0  0  0  1  0  0  0  0  0  0  0  0
    3.6260    2.0070    2.9315 H   0  0  0  1  0  0  0  0  0  0  0  0
    0.1850    2.0523   -3.4367 H   0  0  0  1  0  0  0  0  0  0  0  0
    1.4119    3.2671   -3.7043 H   0  0  0  1  0  0  0  0  0  0  0  0
   -0.2301    3.7471   -3.3473 H   0  0  0  1  0  0  0  0  0  0  0  0
   -1.3980    2.6987    1.3013 C   0  0  0  1  0  0  0  0  0  0  0  0
   -2.3550    3.8075    0.9156 C   0  0  0  1  0  0  0  0  0  0  0  0
   -2.5498    4.9879    1.5700 C   0  0  0  1  0  0  0  0  0  0  0  0
   -3.5084    5.7314    0.9305 N   0  0  0  1  0  0  0  0  0  0  0  0
   -3.9416    5.0482   -0.1727 C   0  0  0  1  0  0  0  0  0  0  0  0
   -4.8898    5.3902   -1.1408 C   0  0  0  1  0  0  0  0  0  0  0  0
   -5.1298    4.4783   -2.1456 C   0  0  0  1  0  0  0  0  0  0  0  0
   -4.4601    3.2597   -2.1950 C   0  0  0  1  0  0  0  0  0  0  0  0
   -3.5210    2.9239   -1.2449 C   0  0  0  1  0  0  0  0  0  0  0  0
   -3.2433    3.8296   -0.2154 C   0  0  0  1  0  0  0  0  0  0  0  0
   -4.7347    2.3935   -3.1891 F   0  0  0  1  0  0  0  0  0  0  0  0
   -1.2350    2.7418    2.3580 H   0  0  0  1  0  0  0  0  0  0  0  0
   -1.8441    1.7600    1.0468 H   0  0  0  1  0  0  0  0  0  0  0  0
   -2.0443    5.2819    2.4301 H   0  0  0  1  0  0  0  0  0  0  0  0
   -3.8313    6.6110    1.2177 H   0  0  0  1  0  0  0  0  0  0  0  0
   -5.3951    6.2984   -1.1043 H   0  0  0  1  0  0  0  0  0  0  0  0
   -5.8269    4.7058   -2.8831 H   0  0  0  1  0  0  0  0  0  0  0  0
   -3.0257    2.0106   -1.2922 H   0  0  0  1  0  0  0  0  0  0  0  0
  1  4  1  0  0  0  0
  2  4  1  0  0  0  0
  2  5  2  0  0  0  0
  2  6  1  0  0  0  0
  3  4  1  0  0  0  0
  3  7  1  0  0  0  0
  3  8  1  0  0  0  0
  4 19  1  0  0  0  0
  6  9  1  0  0  0  0
  6 12  1  0  0  0  0
  8 10  1  0  0  0  0
  8 11  2  0  0  0  0
  9 13  1  0  0  0  0
  9 14  1  0  0  0  0
  9 15  1  0  0  0  0
 10 16  1  0  0  0  0
 10 17  1  0  0  0  0
 10 18  1  0  0  0  0
 19 20  1  0  0  0  0
 19 30  1  0  0  0  0
 19 31  1  0  0  0  0
 20 21  4  0  0  0  0
 20 28  4  0  0  0  0
 21 22  4  0  0  0  0
 21 32  1  0  0  0  0
 22 23  4  0  0  0  0
 22 33  1  0  0  0  0
 23 24  4  0  0  0  0
 23 28  4  0  0  0  0
 24 25  4  0  0  0  0
 24 34  1  0  0  0  0
 25 26  4  0  0  0  0
 25 35  1  0  0  0  0
 26 27  4  0  0  0  0
 26 29  1  0  0  0  0
 27 28  4  0  0  0  0
 27 36  1  0  0  0  0
M  END
> <BCLConfClusterSize>
1

> <ConfClashScore>
0 

> <ConfOneFourInteractionScore>
-0.981931 

> <ConfScore>
0.48724 

> <ConfScorePBest>
0.0249382 

> <ConfTolerance>
0.515871 

> <RosettaParamsInstructions>
M  ROOT 3
M  POLY_N_BB 3
M  POLY_CA_BB 4
M  POLY_C_BB 2
M  POLY_O_BB 5
M  POLY_IGNORE 9 10 11 12 13 14 15 16 17 18 
M  POLY_UPPER 6
M  POLY_LOWER 8
M  POLY_CHG 0
M  POLY_PROPERTIES ALPHA_AA L_AA PROTEIN AROMATIC POLYMER 
M  END

$$$$



 36 37  0  0  0  0  0  0  0  0999 V2000
    0.3348    3.8920    1.4886 H   0  0  0  1  0  0  0  0  0  0  0  0
    0.9602    1.8778    1.3982 C   0  0  0  1  0  0  0  0  0  0  0  0
    0.2081    3.2471   -0.4717 N   0  0  0  1  0  0  0  0  0  0  0  0
    0.0521    3.0085    0.9554 C   0  0  0  1  0  0  0  0  0  0  0  0
    0.8861    0.7634    0.8872 O   0  0  0  1  0  0  0  0  0  0  0  0
    1.8345    2.1790    2.3713 N   0  0  0  1  0  0  0  0  0  0  0  0
    0.0992    2.5079   -1.1059 H   0  0  0  1  0  0  0  0  0  0  0  0
    0.4996    4.4718   -0.9192 C   0  0  0  1  0  0  0  0  0  0  0  0
    2.7349    1.1881    2.9415 C   0  0  0  1  0  0  0  0  0  0  0  0
    0.6516    4.6060   -2.4289 C   0  0  0  1  0  0  0  0  0  0  0  0
    0.6399    5.4412   -0.1747 O   0  0  0  1  0  0  0  0  0  0  0  0
    1.8676    3.0982    2.7095 H   0  0  0  1  0  0  0  0  0  0  0  0
    3.3572    0.7851    2.1700 H   0  0  0  1  0  0  0  0  0  0  0  0
    2.1629    0.4005    3.3857 H   0  0  0  1  0  0  0  0  0  0  0  0
    3.3467    1.6500    3.6879 H   0  0  0  1  0  0  0  0  0  0  0  0
   -0.1757    4.1321   -2.9147 H   0  0  0  1  0  0  0  0  0  0  0  0
    1.5626    4.1377   -2.7384 H   0  0  0  1  0  0  0  0  0  0  0  0
    0.6747    5.6423   -2.6941 H   0  0  0  1  0  0  0  0  0  0  0  0
   -1.4067    2.6939    1.3009 C   0  0  0  1  0  0  0  0  0  0  0  0
   -2.3616    3.8070    0.9162 C   0  0  0  1  0  0  0  0  0  0  0  0
   -2.5407    4.9943    1.5800 C   0  0  0  1  0  0  0  0  0  0  0  0
   -3.5120    5.7436    0.9336 N   0  0  0  1  0  0  0  0  0  0  0  0
   -3.9486    5.0413   -0.1721 C   0  0  0  1  0  0  0  0  0  0  0  0
   -4.8874    5.3840   -1.1398 C   0  0  0  1  0  0  0  0  0  0  0  0
   -5.1359    4.4783   -2.1456 C   0  0  0  1  0  0  0  0  0  0  0  0
   -4.4555    3.2566   -2.1992 C   0  0  0  1  0  0  0  0  0  0  0  0
   -3.5241    2.9215   -1.2499 C   0  0  0  1  0  0  0  0  0  0  0  0
   -3.2476    3.8184   -0.2092 C   0  0  0  1  0  0  0  0  0  0  0  0
   -4.7198    2.3951   -3.2003 F   0  0  0  1  0  0  0  0  0  0  0  0
   -1.4795    2.5323    2.3562 H   0  0  0  1  0  0  0  0  0  0  0  0
   -1.6951    1.8034    0.7825 H   0  0  0  1  0  0  0  0  0  0  0  0
   -2.0274    5.2870    2.4358 H   0  0  0  1  0  0  0  0  0  0  0  0
   -3.8348    6.6252    1.2147 H   0  0  0  1  0  0  0  0  0  0  0  0
   -5.3858    6.2961   -1.1043 H   0  0  0  1  0  0  0  0  0  0  0  0
   -5.8398    4.7051   -2.8768 H   0  0  0  1  0  0  0  0  0  0  0  0
   -3.0272    2.0093   -1.3019 H   0  0  0  1  0  0  0  0  0  0  0  0
  1  4  1  0  0  0  0
  2  4  1  0  0  0  0
  2  5  2  0  0  0  0
  2  6  1  0  0  0  0
  3  4  1  0  0  0  0
  3  7  1  0  0  0  0
  3  8  1  0  0  0  0
  4 19  1  0  0  0  0
  6  9  1  0  0  0  0
  6 12  1  0  0  0  0
  8 10  1  0  0  0  0
  8 11  2  0  0  0  0
  9 13  1  0  0  0  0
  9 14  1  0  0  0  0
  9 15  1  0  0  0  0
 10 16  1  0  0  0  0
 10 17  1  0  0  0  0
 10 18  1  0  0  0  0
 19 20  1  0  0  0  0
 19 30  1  0  0  0  0
 19 31  1  0  0  0  0
 20 21  4  0  0  0  0
 20 28  4  0  0  0  0
 21 22  4  0  0  0  0
 21 32  1  0  0  0  0
 22 23  4  0  0  0  0
 22 33  1  0  0  0  0
 23 24  4  0  0  0  0
 23 28  4  0  0  0  0
 24 25  4  0  0  0  0
 24 34  1  0  0  0  0
 25 26  4  0  0  0  0
 25 35  1  0  0  0  0
 26 27  4  0  0  0  0
 26 29  1  0  0  0  0
 27 28  4  0  0  0  0
 27 36  1  0  0  0  0
M  END
> <BCLConfClusterSize>
1

> <ConfClashScore>
0 

> <ConfOneFourInteractionScore>
-0.986627 

> <ConfScore>
0.48828 

> <ConfScorePBest>
0.0245725 

> <ConfTolerance>
0.683964 

> <RosettaParamsInstructions>
M  ROOT 3
M  POLY_N_BB 3
M  POLY_CA_BB 4
M  POLY_C_BB 2
M  POLY_O_BB 5
M  POLY_IGNORE 9 10 11 12 13 14 15 16 17 18 
M  POLY_UPPER 6
M  POLY_LOWER 8
M  POLY_CHG 0
M  POLY_PROPERTIES ALPHA_AA L_AA PROTEIN AROMATIC POLYMER 
M  END

$$$$



 36 37  0  0  0  0  0  0  0  0999 V2000
   -1.9020    2.7672    3.3164 H   0  0  0  1  0  0  0  0  0  0  0  0
   -3.1690    1.3077    2.5542 C   0  0  0  1  0  0  0  0  0  0  0  0
   -0.7495    1.0933    3.0798 N   0  0  0  1  0  0  0  0  0  0  0  0
   -1.8119    1.9911    2.5853 C   0  0  0  1  0  0  0  0  0  0  0  0
   -4.1735    1.8757    2.9518 O   0  0  0  1  0  0  0  0  0  0  0  0
   -3.1811    0.0630    2.0688 N   0  0  0  1  0  0  0  0  0  0  0  0
    0.0034    0.9089    2.4801 H   0  0  0  1  0  0  0  0  0  0  0  0
   -0.7370    0.5107    4.2884 C   0  0  0  1  0  0  0  0  0  0  0  0
   -4.4269   -0.6870    2.0116 C   0  0  0  1  0  0  0  0  0  0  0  0
    0.3816   -0.4940    4.5660 C   0  0  0  1  0  0  0  0  0  0  0  0
   -1.6223    0.6979    5.1188 O   0  0  0  1  0  0  0  0  0  0  0  0
   -2.3492   -0.3458    1.7506 H   0  0  0  1  0  0  0  0  0  0  0  0
   -4.9953   -0.5035    2.8994 H   0  0  0  1  0  0  0  0  0  0  0  0
   -4.2106   -1.7322    1.9365 H   0  0  0  1  0  0  0  0  0  0  0  0
   -4.9909   -0.3766    1.1569 H   0  0  0  1  0  0  0  0  0  0  0  0
    1.2871   -0.1561    4.1070 H   0  0  0  1  0  0  0  0  0  0  0  0
    0.1120   -1.4478    4.1629 H   0  0  0  1  0  0  0  0  0  0  0  0
    0.5283   -0.5811    5.6223 H   0  0  0  1  0  0  0  0  0  0  0  0
   -1.4132    2.7010    1.2981 C   0  0  0  1  0  0  0  0  0  0  0  0
   -2.3611    3.8063    0.9162 C   0  0  0  1  0  0  0  0  0  0  0  0
   -2.5401    4.9935    1.5801 C   0  0  0  1  0  0  0  0  0  0  0  0
   -3.5113    5.7430    0.9339 N   0  0  0  1  0  0  0  0  0  0  0  0
   -3.9481    5.0408   -0.1718 C   0  0  0  1  0  0  0  0  0  0  0  0
   -4.8869    5.3837   -1.1395 C   0  0  0  1  0  0  0  0  0  0  0  0
   -5.1355    4.4781   -2.1453 C   0  0  0  1  0  0  0  0  0  0  0  0
   -4.4552    3.2563   -2.1991 C   0  0  0  1  0  0  0  0  0  0  0  0
   -3.5238    2.9211   -1.2499 C   0  0  0  1  0  0  0  0  0  0  0  0
   -3.2472    3.8178   -0.2091 C   0  0  0  1  0  0  0  0  0  0  0  0
   -4.7197    2.3950   -3.2002 F   0  0  0  1  0  0  0  0  0  0  0  0
   -1.3910    1.9824    0.5056 H   0  0  0  1  0  0  0  0  0  0  0  0
   -0.4370    3.1194    1.4282 H   0  0  0  1  0  0  0  0  0  0  0  0
   -2.0267    5.2861    2.4359 H   0  0  0  1  0  0  0  0  0  0  0  0
   -3.8341    6.6245    1.2151 H   0  0  0  1  0  0  0  0  0  0  0  0
   -5.3853    6.2958   -1.1038 H   0  0  0  1  0  0  0  0  0  0  0  0
   -5.8395    4.7050   -2.8765 H   0  0  0  1  0  0  0  0  0  0  0  0
   -3.0270    2.0089   -1.3020 H   0  0  0  1  0  0  0  0  0  0  0  0
  1  4  1  0  0  0  0
  2  4  1  0  0  0  0
  2  5  2  0  0  0  0
  2  6  1  0  0  0  0
  3  4  1  0  0  0  0
  3  7  1  0  0  0  0
  3  8  1  0  0  0  0
  4 19  1  0  0  0  0
  6  9  1  0  0  0  0
  6 12  1  0  0  0  0
  8 10  1  0  0  0  0
  8 11  2  0  0  0  0
  9 13  1  0  0  0  0
  9 14  1  0  0  0  0
  9 15  1  0  0  0  0
 10 16  1  0  0  0  0
 10 17  1  0  0  0  0
 10 18  1  0  0  0  0
 19 20  1  0  0  0  0
 19 30  1  0  0  0  0
 19 31  1  0  0  0  0
 20 21  4  0  0  0  0
 20 28  4  0  0  0  0
 21 22  4  0  0  0  0
 21 32  1  0  0  0  0
 22 23  4  0  0  0  0
 22 33  1  0  0  0  0
 23 24  4  0  0  0  0
 23 28  4  0  0  0  0
 24 25  4  0  0  0  0
 24 34  1  0  0  0  0
 25 26  4  0  0  0  0
 25 35  1  0  0  0  0
 26 27  4  0  0  0  0
 26 29  1  0  0  0  0
 27 28  4  0  0  0  0
 27 36  1  0  0  0  0
M  END
> <BCLConfClusterSize>
1

> <ConfClashScore>
0 

> <ConfOneFourInteractionScore>
-0.960318 

> <ConfScore>
0.491528 

> <ConfScorePBest>
0.0242067 

> <ConfTolerance>
0.735137 

> <RosettaParamsInstructions>
M  ROOT 3
M  POLY_N_BB 3
M  POLY_CA_BB 4
M  POLY_C_BB 2
M  POLY_O_BB 5
M  POLY_IGNORE 9 10 11 12 13 14 15 16 17 18 
M  POLY_UPPER 6
M  POLY_LOWER 8
M  POLY_CHG 0
M  POLY_PROPERTIES ALPHA_AA L_AA PROTEIN AROMATIC POLYMER 
M  END

$$$$



 36 37  0  0  0  0  0  0  0  0999 V2000
   -2.8394    1.2725    1.8413 H   0  0  0  1  0  0  0  0  0  0  0  0
   -1.0383    0.6163    2.6643 C   0  0  0  1  0  0  0  0  0  0  0  0
   -2.5161    2.4459    3.4786 N   0  0  0  1  0  0  0  0  0  0  0  0
   -2.0018    1.7363    2.3191 C   0  0  0  1  0  0  0  0  0  0  0  0
   -0.2145    0.7461    3.5566 O   0  0  0  1  0  0  0  0  0  0  0  0
   -1.2045   -0.5364    2.0012 N   0  0  0  1  0  0  0  0  0  0  0  0
   -1.9045    3.0078    3.9988 H   0  0  0  1  0  0  0  0  0  0  0  0
   -3.7936    2.3588    3.8599 C   0  0  0  1  0  0  0  0  0  0  0  0
   -0.3525   -1.6940    2.2289 C   0  0  0  1  0  0  0  0  0  0  0  0
   -4.2341    3.2682    5.0140 C   0  0  0  1  0  0  0  0  0  0  0  0
   -4.6220    1.6548    3.2838 O   0  0  0  1  0  0  0  0  0  0  0  0
   -1.9248   -0.6020    1.3400 H   0  0  0  1  0  0  0  0  0  0  0  0
   -0.1352   -1.7777    3.2733 H   0  0  0  1  0  0  0  0  0  0  0  0
    0.5605   -1.5775    1.6832 H   0  0  0  1  0  0  0  0  0  0  0  0
   -0.8562   -2.5780    1.8977 H   0  0  0  1  0  0  0  0  0  0  0  0
   -5.0099    3.9233    4.6766 H   0  0  0  1  0  0  0  0  0  0  0  0
   -3.3994    3.8475    5.3498 H   0  0  0  1  0  0  0  0  0  0  0  0
   -4.6001    2.6682    5.8208 H   0  0  0  1  0  0  0  0  0  0  0  0
   -1.4132    2.7010    1.2981 C   0  0  0  1  0  0  0  0  0  0  0  0
   -2.3611    3.8063    0.9162 C   0  0  0  1  0  0  0  0  0  0  0  0
   -2.5401    4.9935    1.5801 C   0  0  0  1  0  0  0  0  0  0  0  0
   -3.5113    5.7430    0.9339 N   0  0  0  1  0  0  0  0  0  0  0  0
   -3.9481    5.0408   -0.1718 C   0  0  0  1  0  0  0  0  0  0  0  0
   -4.8869    5.3837   -1.1395 C   0  0  0  1  0  0  0  0  0  0  0  0
   -5.1355    4.4781   -2.1453 C   0  0  0  1  0  0  0  0  0  0  0  0
   -4.4552    3.2563   -2.1991 C   0  0  0  1  0  0  0  0  0  0  0  0
   -3.5238    2.9211   -1.2499 C   0  0  0  1  0  0  0  0  0  0  0  0
   -3.2472    3.8178   -0.2091 C   0  0  0  1  0  0  0  0  0  0  0  0
   -4.7197    2.3950   -3.2002 F   0  0  0  1  0  0  0  0  0  0  0  0
   -1.1591    2.1505    0.4164 H   0  0  0  1  0  0  0  0  0  0  0  0
   -0.5293    3.1386    1.7131 H   0  0  0  1  0  0  0  0  0  0  0  0
   -2.0267    5.2861    2.4359 H   0  0  0  1  0  0  0  0  0  0  0  0
   -3.8341    6.6245    1.2151 H   0  0  0  1  0  0  0  0  0  0  0  0
   -5.3853    6.2958   -1.1038 H   0  0  0  1  0  0  0  0  0  0  0  0
   -5.8395    4.7050   -2.8765 H   0  0  0  1  0  0  0  0  0  0  0  0
   -3.0270    2.0089   -1.3020 H   0  0  0  1  0  0  0  0  0  0  0  0
  1  4  1  0  0  0  0
  2  4  1  0  0  0  0
  2  5  2  0  0  0  0
  2  6  1  0  0  0  0
  3  4  1  0  0  0  0
  3  7  1  0  0  0  0
  3  8  1  0  0  0  0
  4 19  1  0  0  0  0
  6  9  1  0  0  0  0
  6 12  1  0  0  0  0
  8 10  1  0  0  0  0
  8 11  2  0  0  0  0
  9 13  1  0  0  0  0
  9 14  1  0  0  0  0
  9 15  1  0  0  0  0
 10 16  1  0  0  0  0
 10 17  1  0  0  0  0
 10 18  1  0  0  0  0
 19 20  1  0  0  0  0
 19 30  1  0  0  0  0
 19 31  1  0  0  0  0
 20 21  4  0  0  0  0
 20 28  4  0  0  0  0
 21 22  4  0  0  0  0
 21 32  1  0  0  0  0
 22 23  4  0  0  0  0
 22 33  1  0  0  0  0
 23 24  4  0  0  0  0
 23 28  4  0  0  0  0
 24 25  4  0  0  0  0
 24 34  1  0  0  0  0
 25 26  4  0  0  0  0
 25 35  1  0  0  0  0
 26 27  4  0  0  0  0
 26 29  1  0  0  0  0
 27 28  4  0  0  0  0
 27 36  1  0  0  0  0
M  END
> <BCLConfClusterSize>
1

> <ConfClashScore>
0 

> <ConfOneFourInteractionScore>
-0.985807 

> <ConfScore>
0.49516 

> <ConfScorePBest>
0.0238409 

> <ConfTolerance>
0.373794 

> <RosettaParamsInstructions>
M  ROOT 3
M  POLY_N_BB 3
M  POLY_CA_BB 4
M  POLY_C_BB 2
M  POLY_O_BB 5
M  POLY_IGNORE 9 10 11 12 13 14 15 16 17 18 
M  POLY_UPPER 6
M  POLY_LOWER 8
M  POLY_CHG 0
M  POLY_PROPERTIES ALPHA_AA L_AA PROTEIN AROMATIC POLYMER 
M  END

$$$$



 36 37  0  0  0  0  0  0  0  0999 V2000
   -0.3480    3.8232    2.7811 H   0  0  0  1  0  0  0  0  0  0  0  0
   -1.8330    2.6370    3.7499 C   0  0  0  1  0  0  0  0  0  0  0  0
    0.2831    1.8378    2.7979 N   0  0  0  1  0  0  0  0  0  0  0  0
   -0.7635    2.8422    2.6812 C   0  0  0  1  0  0  0  0  0  0  0  0
   -2.3263    3.5828    4.3418 O   0  0  0  1  0  0  0  0  0  0  0  0
   -2.1826    1.3691    3.9852 N   0  0  0  1  0  0  0  0  0  0  0  0
    0.4918    1.2797    2.0199 H   0  0  0  1  0  0  0  0  0  0  0  0
    0.9691    1.6500    3.9289 C   0  0  0  1  0  0  0  0  0  0  0  0
   -3.0716    0.9974    5.0757 C   0  0  0  1  0  0  0  0  0  0  0  0
    2.0853    0.6114    3.8438 C   0  0  0  1  0  0  0  0  0  0  0  0
    0.6972    2.2009    4.9923 O   0  0  0  1  0  0  0  0  0  0  0  0
   -1.8280    0.6649    3.4031 H   0  0  0  1  0  0  0  0  0  0  0  0
   -3.7592    1.7954    5.2638 H   0  0  0  1  0  0  0  0  0  0  0  0
   -2.4951    0.8087    5.9571 H   0  0  0  1  0  0  0  0  0  0  0  0
   -3.6144    0.1150    4.8081 H   0  0  0  1  0  0  0  0  0  0  0  0
    1.6581   -0.3670    3.7721 H   0  0  0  1  0  0  0  0  0  0  0  0
    2.6949    0.6706    4.7212 H   0  0  0  1  0  0  0  0  0  0  0  0
    2.6851    0.8027    2.9787 H   0  0  0  1  0  0  0  0  0  0  0  0
   -1.4036    2.7047    1.2989 C   0  0  0  1  0  0  0  0  0  0  0  0
   -2.3546    3.8068    0.9157 C   0  0  0  1  0  0  0  0  0  0  0  0
   -2.5493    4.9873    1.5702 C   0  0  0  1  0  0  0  0  0  0  0  0
   -3.5079    5.7309    0.9308 N   0  0  0  1  0  0  0  0  0  0  0  0
   -3.9412    5.0477   -0.1725 C   0  0  0  1  0  0  0  0  0  0  0  0
   -4.8894    5.3899   -1.1405 C   0  0  0  1  0  0  0  0  0  0  0  0
   -5.1295    4.4781   -2.1454 C   0  0  0  1  0  0  0  0  0  0  0  0
   -4.4599    3.2595   -2.1949 C   0  0  0  1  0  0  0  0  0  0  0  0
   -3.5208    2.9236   -1.2449 C   0  0  0  1  0  0  0  0  0  0  0  0
   -3.2429    3.8291   -0.2153 C   0  0  0  1  0  0  0  0  0  0  0  0
   -4.7346    2.3934   -3.1891 F   0  0  0  1  0  0  0  0  0  0  0  0
   -1.9424    1.7806    1.2751 H   0  0  0  1  0  0  0  0  0  0  0  0
   -0.6182    2.6791    0.5726 H   0  0  0  1  0  0  0  0  0  0  0  0
   -2.0437    5.2812    2.4302 H   0  0  0  1  0  0  0  0  0  0  0  0
   -3.8307    6.6105    1.2180 H   0  0  0  1  0  0  0  0  0  0  0  0
   -5.3947    6.2982   -1.1039 H   0  0  0  1  0  0  0  0  0  0  0  0
   -5.8266    4.7057   -2.8828 H   0  0  0  1  0  0  0  0  0  0  0  0
   -3.0256    2.0102   -1.2923 H   0  0  0  1  0  0  0  0  0  0  0  0
  1  4  1  0  0  0  0
  2  4  1  0  0  0  0
  2  5  2  0  0  0  0
  2  6  1  0  0  0  0
  3  4  1  0  0  0  0
  3  7  1  0  0  0  0
  3  8  1  0  0  0  0
  4 19  1  0  0  0  0
  6  9  1  0  0  0  0
  6 12  1  0  0  0  0
  8 10  1  0  0  0  0
  8 11  2  0  0  0  0
  9 13  1  0  0  0  0
  9 14  1  0  0  0  0
  9 15  1  0  0  0  0
 10 16  1  0  0  0  0
 10 17  1  0  0  0  0
 10 18  1  0  0  0  0
 19 20  1  0  0  0  0
 19 30  1  0  0  0  0
 19 31  1  0  0  0  0
 20 21  4  0  0  0  0
 20 28  4  0  0  0  0
 21 22  4  0  0  0  0
 21 32  1  0  0  0  0
 22 23  4  0  0  0  0
 22 33  1  0  0  0  0
 23 24  4  0  0  0  0
 23 28  4  0  0  0  0
 24 25  4  0  0  0  0
 24 34  1  0  0  0  0
 25 26  4  0  0  0  0
 25 35  1  0  0  0  0
 26 27  4  0  0  0  0
 26 29  1  0  0  0  0
 27 28  4  0  0  0  0
 27 36  1  0  0  0  0
M  END
> <BCLConfClusterSize>
1

> <ConfClashScore>
0 

> <ConfOneFourInteractionScore>
-0.952877 

> <ConfScore>
0.500773 

> <ConfScorePBest>
0.0234751 

> <ConfTolerance>
0.721837 

> <RosettaParamsInstructions>
M  ROOT 3
M  POLY_N_BB 3
M  POLY_CA_BB 4
M  POLY_C_BB 2
M  POLY_O_BB 5
M  POLY_IGNORE 9 10 11 12 13 14 15 16 17 18 
M  POLY_UPPER 6
M  POLY_LOWER 8
M  POLY_CHG 0
M  POLY_PROPERTIES ALPHA_AA L_AA PROTEIN AROMATIC POLYMER 
M  END

$$$$



 36 37  0  0  0  0  0  0  0  0999 V2000
   -1.2954    1.1046    2.6916 H   0  0  0  1  0  0  0  0  0  0  0  0
   -2.5777    2.5667    3.5127 C   0  0  0  1  0  0  0  0  0  0  0  0
   -3.1264    0.9898    1.7381 N   0  0  0  1  0  0  0  0  0  0  0  0
   -2.0525    1.7707    2.3338 C   0  0  0  1  0  0  0  0  0  0  0  0
   -1.9376    2.6689    4.5583 O   0  0  0  1  0  0  0  0  0  0  0  0
   -3.7700    3.1238    3.2949 N   0  0  0  1  0  0  0  0  0  0  0  0
   -3.3137    1.0954    0.7820 H   0  0  0  1  0  0  0  0  0  0  0  0
   -3.8730    0.1255    2.4563 C   0  0  0  1  0  0  0  0  0  0  0  0
   -4.5039    3.9261    4.2621 C   0  0  0  1  0  0  0  0  0  0  0  0
   -5.0577   -0.5307    1.7742 C   0  0  0  1  0  0  0  0  0  0  0  0
   -3.6028   -0.1246    3.6302 O   0  0  0  1  0  0  0  0  0  0  0  0
   -4.1829    2.9821    2.4175 H   0  0  0  1  0  0  0  0  0  0  0  0
   -4.2957    3.5729    5.2505 H   0  0  0  1  0  0  0  0  0  0  0  0
   -5.5532    3.8460    4.0687 H   0  0  0  1  0  0  0  0  0  0  0  0
   -4.2024    4.9493    4.1784 H   0  0  0  1  0  0  0  0  0  0  0  0
   -4.7088   -1.1774    0.9963 H   0  0  0  1  0  0  0  0  0  0  0  0
   -5.6897    0.2235    1.3539 H   0  0  0  1  0  0  0  0  0  0  0  0
   -5.6105   -1.1013    2.4909 H   0  0  0  1  0  0  0  0  0  0  0  0
   -1.4132    2.7010    1.2981 C   0  0  0  1  0  0  0  0  0  0  0  0
   -2.3611    3.8063    0.9162 C   0  0  0  1  0  0  0  0  0  0  0  0
   -2.5401    4.9935    1.5801 C   0  0  0  1  0  0  0  0  0  0  0  0
   -3.5113    5.7430    0.9339 N   0  0  0  1  0  0  0  0  0  0  0  0
   -3.9481    5.0408   -0.1718 C   0  0  0  1  0  0  0  0  0  0  0  0
   -4.8869    5.3837   -1.1395 C   0  0  0  1  0  0  0  0  0  0  0  0
   -5.1355    4.4781   -2.1453 C   0  0  0  1  0  0  0  0  0  0  0  0
   -4.4552    3.2563   -2.1991 C   0  0  0  1  0  0  0  0  0  0  0  0
   -3.5238    2.9211   -1.2499 C   0  0  0  1  0  0  0  0  0  0  0  0
   -3.2472    3.8178   -0.2091 C   0  0  0  1  0  0  0  0  0  0  0  0
   -4.7197    2.3950   -3.2002 F   0  0  0  1  0  0  0  0  0  0  0  0
   -1.1640    2.1352    0.4248 H   0  0  0  1  0  0  0  0  0  0  0  0
   -0.5241    3.1288    1.7122 H   0  0  0  1  0  0  0  0  0  0  0  0
   -2.0267    5.2861    2.4359 H   0  0  0  1  0  0  0  0  0  0  0  0
   -3.8341    6.6245    1.2151 H   0  0  0  1  0  0  0  0  0  0  0  0
   -5.3853    6.2958   -1.1038 H   0  0  0  1  0  0  0  0  0  0  0  0
   -5.8395    4.7050   -2.8765 H   0  0  0  1  0  0  0  0  0  0  0  0
   -3.0270    2.0089   -1.3020 H   0  0  0  1  0  0  0  0  0  0  0  0
  1  4  1  0  0  0  0
  2  4  1  0  0  0  0
  2  5  2  0  0  0  0
  2  6  1  0  0  0  0
  3  4  1  0  0  0  0
  3  7  1  0  0  0  0
  3  8  1  0  0  0  0
  4 19  1  0  0  0  0
  6  9  1  0  0  0  0
  6 12  1  0  0  0  0
  8 10  1  0  0  0  0
  8 11  2  0  0  0  0
  9 13  1  0  0  0  0
  9 14  1  0  0  0  0
  9 15  1  0  0  0  0
 10 16  1  0  0  0  0
 10 17  1  0  0  0  0
 10 18  1  0  0  0  0
 19 20  1  0  0  0  0
 19 30  1  0  0  0  0
 19 31  1  0  0  0  0
 20 21  4  0  0  0  0
 20 28  4  0  0  0  0
 21 22  4  0  0  0  0
 21 32  1  0  0  0  0
 22 23  4  0  0  0  0
 22 33  1  0  0  0  0
 23 24  4  0  0  0  0
 23 28  4  0  0  0  0
 24 25  4  0  0  0  0
 24 34  1  0  0  0  0
 25 26  4  0  0  0  0
 25 35  1  0  0  0  0
 26 27  4  0  0  0  0
 26 29  1  0  0  0  0
 27 28  4  0  0  0  0
 27 36  1  0  0  0  0
M  END
> <BCLConfClusterSize>
1

> <ConfClashScore>
0 

> <ConfOneFourInteractionScore>
-0.957074 

> <ConfScore>
0.50625 

> <ConfScorePBest>
0.0231093 

> <ConfTolerance>
0.514874 

> <RosettaParamsInstructions>
M  ROOT 3
M  POLY_N_BB 3
M  POLY_CA_BB 4
M  POLY_C_BB 2
M  POLY_O_BB 5
M  POLY_IGNORE 9 10 11 12 13 14 15 16 17 18 
M  POLY_UPPER 6
M  POLY_LOWER 8
M  POLY_CHG 0
M  POLY_PROPERTIES ALPHA_AA L_AA PROTEIN AROMATIC POLYMER 
M  END

$$$$



 36 37  0  0  0  0  0  0  0  0999 V2000
   -0.7607    2.4556   -0.6861 H   0  0  0  1  0  0  0  0  0  0  0  0
    0.6665    3.6566    0.2795 C   0  0  0  1  0  0  0  0  0  0  0  0
    0.3537    1.2153    0.5183 N   0  0  0  1  0  0  0  0  0  0  0  0
   -0.3040    2.4916    0.2808 C   0  0  0  1  0  0  0  0  0  0  0  0
    0.4473    4.6650   -0.3903 O   0  0  0  1  0  0  0  0  0  0  0  0
    1.7158    3.5581    1.1099 N   0  0  0  1  0  0  0  0  0  0  0  0
    0.1580    0.7293    1.3465 H   0  0  0  1  0  0  0  0  0  0  0  0
    1.2149    0.6831   -0.3535 C   0  0  0  1  0  0  0  0  0  0  0  0
    2.7157    4.6090    1.2273 C   0  0  0  1  0  0  0  0  0  0  0  0
    1.8267   -0.6703    0.0093 C   0  0  0  1  0  0  0  0  0  0  0  0
    1.5778    1.2765   -1.3677 O   0  0  0  1  0  0  0  0  0  0  0  0
    1.8123    2.7503    1.6563 H   0  0  0  1  0  0  0  0  0  0  0  0
    3.5224    4.2674    1.8417 H   0  0  0  1  0  0  0  0  0  0  0  0
    2.2716    5.4754    1.6712 H   0  0  0  1  0  0  0  0  0  0  0  0
    3.0881    4.8568    0.2553 H   0  0  0  1  0  0  0  0  0  0  0  0
    1.9274   -0.7434    1.0720 H   0  0  0  1  0  0  0  0  0  0  0  0
    2.7904   -0.7597   -0.4470 H   0  0  0  1  0  0  0  0  0  0  0  0
    1.1904   -1.4550   -0.3432 H   0  0  0  1  0  0  0  0  0  0  0  0
   -1.4140    2.7019    1.2977 C   0  0  0  1  0  0  0  0  0  0  0  0
   -2.3610    3.8062    0.9162 C   0  0  0  1  0  0  0  0  0  0  0  0
   -2.5400    4.9934    1.5802 C   0  0  0  1  0  0  0  0  0  0  0  0
   -3.5113    5.7429    0.9339 N   0  0  0  1  0  0  0  0  0  0  0  0
   -3.9481    5.0407   -0.1718 C   0  0  0  1  0  0  0  0  0  0  0  0
   -4.8869    5.3836   -1.1394 C   0  0  0  1  0  0  0  0  0  0  0  0
   -5.1355    4.4781   -2.1453 C   0  0  0  1  0  0  0  0  0  0  0  0
   -4.4552    3.2563   -2.1991 C   0  0  0  1  0  0  0  0  0  0  0  0
   -3.5238    2.9210   -1.2499 C   0  0  0  1  0  0  0  0  0  0  0  0
   -3.2471    3.8178   -0.2091 C   0  0  0  1  0  0  0  0  0  0  0  0
   -4.7197    2.3950   -3.2002 F   0  0  0  1  0  0  0  0  0  0  0  0
   -0.9704    2.9442    2.2408 H   0  0  0  1  0  0  0  0  0  0  0  0
   -1.9701    1.7922    1.3878 H   0  0  0  1  0  0  0  0  0  0  0  0
   -2.0266    5.2860    2.4359 H   0  0  0  1  0  0  0  0  0  0  0  0
   -3.8340    6.6245    1.2152 H   0  0  0  1  0  0  0  0  0  0  0  0
   -5.3852    6.2958   -1.1038 H   0  0  0  1  0  0  0  0  0  0  0  0
   -5.8394    4.7050   -2.8764 H   0  0  0  1  0  0  0  0  0  0  0  0
   -3.0270    2.0088   -1.3020 H   0  0  0  1  0  0  0  0  0  0  0  0
  1  4  1  0  0  0  0
  2  4  1  0  0  0  0
  2  5  2  0  0  0  0
  2  6  1  0  0  0  0
  3  4  1  0  0  0  0
  3  7  1  0  0  0  0
  3  8  1  0  0  0  0
  4 19  1  0  0  0  0
  6  9  1  0  0  0  0
  6 12  1  0  0  0  0
  8 10  1  0  0  0  0
  8 11  2  0  0  0  0
  9 13  1  0  0  0  0
  9 14  1  0  0  0  0
  9 15  1  0  0  0  0
 10 16  1  0  0  0  0
 10 17  1  0  0  0  0
 10 18  1  0  0  0  0
 19 20  1  0  0  0  0
 19 30  1  0  0  0  0
 19 31  1  0  0  0  0
 20 21  4  0  0  0  0
 20 28  4  0  0  0  0
 21 22  4  0  0  0  0
 21 32  1  0  0  0  0
 22 23  4  0  0  0  0
 22 33  1  0  0  0  0
 23 24  4  0  0  0  0
 23 28  4  0  0  0  0
 24 25  4  0  0  0  0
 24 34  1  0  0  0  0
 25 26  4  0  0  0  0
 25 35  1  0  0  0  0
 26 27  4  0  0  0  0
 26 29  1  0  0  0  0
 27 28  4  0  0  0  0
 27 36  1  0  0  0  0
M  END
> <BCLConfClusterSize>
1

> <ConfClashScore>
0 

> <ConfOneFourInteractionScore>
-0.960318 

> <ConfScore>
0.516246 

> <ConfScorePBest>
0.0227435 

> <ConfTolerance>
0.600206 

> <RosettaParamsInstructions>
M  ROOT 3
M  POLY_N_BB 3
M  POLY_CA_BB 4
M  POLY_C_BB 2
M  POLY_O_BB 5
M  POLY_IGNORE 9 10 11 12 13 14 15 16 17 18 
M  POLY_UPPER 6
M  POLY_LOWER 8
M  POLY_CHG 0
M  POLY_PROPERTIES ALPHA_AA L_AA PROTEIN AROMATIC POLYMER 
M  END

$$$$



 36 37  0  0  0  0  0  0  0  0999 V2000
    0.5850    2.0894    1.1317 H   0  0  0  1  0  0  0  0  0  0  0  0
    0.1743    3.1273   -0.6355 C   0  0  0  1  0  0  0  0  0  0  0  0
    0.6453    4.0734    1.6061 N   0  0  0  1  0  0  0  0  0  0  0  0
    0.0321    2.9693    0.8765 C   0  0  0  1  0  0  0  0  0  0  0  0
    0.1514    2.1479   -1.3762 O   0  0  0  1  0  0  0  0  0  0  0  0
    0.3236    4.3588   -1.1261 N   0  0  0  1  0  0  0  0  0  0  0  0
    0.0926    4.5980    2.2223 H   0  0  0  1  0  0  0  0  0  0  0  0
    1.9344    4.3946    1.4635 C   0  0  0  1  0  0  0  0  0  0  0  0
    0.5351    4.6762   -2.5305 C   0  0  0  1  0  0  0  0  0  0  0  0
    2.4628    5.4410    2.4253 C   0  0  0  1  0  0  0  0  0  0  0  0
    2.6616    3.8845    0.6122 O   0  0  0  1  0  0  0  0  0  0  0  0
    0.2882    5.1060   -0.4930 H   0  0  0  1  0  0  0  0  0  0  0  0
    1.0049    3.8472   -3.0172 H   0  0  0  1  0  0  0  0  0  0  0  0
    1.1630    5.5389   -2.6102 H   0  0  0  1  0  0  0  0  0  0  0  0
   -0.4071    4.8759   -2.9966 H   0  0  0  1  0  0  0  0  0  0  0  0
    1.6910    6.1498    2.6413 H   0  0  0  1  0  0  0  0  0  0  0  0
    3.2955    5.9451    1.9811 H   0  0  0  1  0  0  0  0  0  0  0  0
    2.7749    4.9664    3.3320 H   0  0  0  1  0  0  0  0  0  0  0  0
   -1.4077    2.6949    1.3005 C   0  0  0  1  0  0  0  0  0  0  0  0
   -2.3615    3.8069    0.9162 C   0  0  0  1  0  0  0  0  0  0  0  0
   -2.5406    4.9942    1.5800 C   0  0  0  1  0  0  0  0  0  0  0  0
   -3.5119    5.7435    0.9336 N   0  0  0  1  0  0  0  0  0  0  0  0
   -3.9486    5.0412   -0.1720 C   0  0  0  1  0  0  0  0  0  0  0  0
   -4.8873    5.3839   -1.1398 C   0  0  0  1  0  0  0  0  0  0  0  0
   -5.1358    4.4783   -2.1456 C   0  0  0  1  0  0  0  0  0  0  0  0
   -4.4554    3.2566   -2.1992 C   0  0  0  1  0  0  0  0  0  0  0  0
   -3.5241    2.9214   -1.2499 C   0  0  0  1  0  0  0  0  0  0  0  0
   -3.2475    3.8183   -0.2092 C   0  0  0  1  0  0  0  0  0  0  0  0
   -4.7198    2.3951   -3.2002 F   0  0  0  1  0  0  0  0  0  0  0  0
   -1.4330    2.5768    2.3637 H   0  0  0  1  0  0  0  0  0  0  0  0
   -1.7338    1.7896    0.8327 H   0  0  0  1  0  0  0  0  0  0  0  0
   -2.0273    5.2869    2.4358 H   0  0  0  1  0  0  0  0  0  0  0  0
   -3.8347    6.6251    1.2148 H   0  0  0  1  0  0  0  0  0  0  0  0
   -5.3857    6.2961   -1.1042 H   0  0  0  1  0  0  0  0  0  0  0  0
   -5.8398    4.7051   -2.8767 H   0  0  0  1  0  0  0  0  0  0  0  0
   -3.0272    2.0093   -1.3019 H   0  0  0  1  0  0  0  0  0  0  0  0
  1  4  1  0  0  0  0
  2  4  1  0  0  0  0
  2  5  2  0  0  0  0
  2  6  1  0  0  0  0
  3  4  1  0  0  0  0
  3  7  1  0  0  0  0
  3  8  1  0  0  0  0
  4 19  1  0  0  0  0
  6  9  1  0  0  0  0
  6 12  1  0  0  0  0
  8 10  1  0  0  0  0
  8 11  2  0  0  0  0
  9 13  1  0  0  0  0
  9 14  1  0  0  0  0
  9 15  1  0  0  0  0
 10 16  1  0  0  0  0
 10 17  1  0  0  0  0
 10 18  1  0  0  0  0
 19 20  1  0  0  0  0
 19 30  1  0  0  0  0
 19 31  1  0  0  0  0
 20 21  4  0  0  0  0
 20 28  4  0  0  0  0
 21 22  4  0  0  0  0
 21 32  1  0  0  0  0
 22 23  4  0  0  0  0
 22 33  1  0  0  0  0
 23 24  4  0  0  0  0
 23 28  4  0  0  0  0
 24 25  4  0  0  0  0
 24 34  1  0  0  0  0
 25 26  4  0  0  0  0
 25 35  1  0  0  0  0
 26 27  4  0  0  0  0
 26 29  1  0  0  0  0
 27 28  4  0  0  0  0
 27 36  1  0  0  0  0
M  END
> <BCLConfClusterSize>
1

> <ConfClashScore>
0 

> <ConfOneFourInteractionScore>
-0.957074 

> <ConfScore>
0.516332 

> <ConfScorePBest>
0.0223777 

> <ConfTolerance>
0.373244 

> <RosettaParamsInstructions>
M  ROOT 3
M  POLY_N_BB 3
M  POLY_CA_BB 4
M  POLY_C_BB 2
M  POLY_O_BB 5
M  POLY_IGNORE 9 10 11 12 13 14 15 16 17 18 
M  POLY_UPPER 6
M  POLY_LOWER 8
M  POLY_CHG 0
M  POLY_PROPERTIES ALPHA_AA L_AA PROTEIN AROMATIC POLYMER 
M  END

$$$$



 36 37  0  0  0  0  0  0  0  0999 V2000
    0.3175    3.7309    0.6355 H   0  0  0  1  0  0  0  0  0  0  0  0
    0.9069    1.7161    0.8584 C   0  0  0  1  0  0  0  0  0  0  0  0
   -0.5305    2.6908   -0.9402 N   0  0  0  1  0  0  0  0  0  0  0  0
   -0.1228    2.7704    0.4669 C   0  0  0  1  0  0  0  0  0  0  0  0
    1.3829    1.7165    1.9906 O   0  0  0  1  0  0  0  0  0  0  0  0
    1.1794    0.7744   -0.0493 N   0  0  0  1  0  0  0  0  0  0  0  0
   -1.3355    2.1900   -1.1885 H   0  0  0  1  0  0  0  0  0  0  0  0
    0.1932    3.2998   -1.8838 C   0  0  0  1  0  0  0  0  0  0  0  0
    2.0046   -0.3846    0.2566 C   0  0  0  1  0  0  0  0  0  0  0  0
   -0.3188    3.2083   -3.3225 C   0  0  0  1  0  0  0  0  0  0  0  0
    1.2695    3.8429   -1.6414 O   0  0  0  1  0  0  0  0  0  0  0  0
    0.8108    0.8674   -0.9526 H   0  0  0  1  0  0  0  0  0  0  0  0
    1.4499   -1.0671    0.8660 H   0  0  0  1  0  0  0  0  0  0  0  0
    2.8815   -0.0690    0.7824 H   0  0  0  1  0  0  0  0  0  0  0  0
    2.2892   -0.8698   -0.6536 H   0  0  0  1  0  0  0  0  0  0  0  0
   -0.1044    4.1218   -3.8367 H   0  0  0  1  0  0  0  0  0  0  0  0
   -1.3760    3.0433   -3.3148 H   0  0  0  1  0  0  0  0  0  0  0  0
    0.1659    2.3958   -3.8223 H   0  0  0  1  0  0  0  0  0  0  0  0
   -1.3982    2.6988    1.3013 C   0  0  0  1  0  0  0  0  0  0  0  0
   -2.3550    3.8075    0.9156 C   0  0  0  1  0  0  0  0  0  0  0  0
   -2.5498    4.9879    1.5701 C   0  0  0  1  0  0  0  0  0  0  0  0
   -3.5084    5.7314    0.9305 N   0  0  0  1  0  0  0  0  0  0  0  0
   -3.9416    5.0482   -0.1727 C   0  0  0  1  0  0  0  0  0  0  0  0
   -4.8898    5.3902   -1.1408 C   0  0  0  1  0  0  0  0  0  0  0  0
   -5.1298    4.4783   -2.1456 C   0  0  0  1  0  0  0  0  0  0  0  0
   -4.4601    3.2597   -2.1950 C   0  0  0  1  0  0  0  0  0  0  0  0
   -3.5210    2.9239   -1.2449 C   0  0  0  1  0  0  0  0  0  0  0  0
   -3.2432    3.8296   -0.2154 C   0  0  0  1  0  0  0  0  0  0  0  0
   -4.7347    2.3935   -3.1891 F   0  0  0  1  0  0  0  0  0  0  0  0
   -1.1462    2.7973    2.3365 H   0  0  0  1  0  0  0  0  0  0  0  0
   -1.8721    1.7536    1.1374 H   0  0  0  1  0  0  0  0  0  0  0  0
   -2.0442    5.2819    2.4301 H   0  0  0  1  0  0  0  0  0  0  0  0
   -3.8313    6.6110    1.2177 H   0  0  0  1  0  0  0  0  0  0  0  0
   -5.3951    6.2984   -1.1043 H   0  0  0  1  0  0  0  0  0  0  0  0
   -5.8268    4.7058   -2.8831 H   0  0  0  1  0  0  0  0  0  0  0  0
   -3.0257    2.0106   -1.2922 H   0  0  0  1  0  0  0  0  0  0  0  0
  1  4  1  0  0  0  0
  2  4  1  0  0  0  0
  2  5  2  0  0  0  0
  2  6  1  0  0  0  0
  3  4  1  0  0  0  0
  3  7  1  0  0  0  0
  3  8  1  0  0  0  0
  4 19  1  0  0  0  0
  6  9  1  0  0  0  0
  6 12  1  0  0  0  0
  8 10  1  0  0  0  0
  8 11  2  0  0  0  0
  9 13  1  0  0  0  0
  9 14  1  0  0  0  0
  9 15  1  0  0  0  0
 10 16  1  0  0  0  0
 10 17  1  0  0  0  0
 10 18  1  0  0  0  0
 19 20  1  0  0  0  0
 19 30  1  0  0  0  0
 19 31  1  0  0  0  0
 20 21  4  0  0  0  0
 20 28  4  0  0  0  0
 21 22  4  0  0  0  0
 21 32  1  0  0  0  0
 22 23  4  0  0  0  0
 22 33  1  0  0  0  0
 23 24  4  0  0  0  0
 23 28  4  0  0  0  0
 24 25  4  0  0  0  0
 24 34  1  0  0  0  0
 25 26  4  0  0  0  0
 25 35  1  0  0  0  0
 26 27  4  0  0  0  0
 26 29  1  0  0  0  0
 27 28  4  0  0  0  0
 27 36  1  0  0  0  0
M  END
> <BCLConfClusterSize>
1

> <ConfClashScore>
0 

> <ConfOneFourInteractionScore>
-0.956443 

> <ConfScore>
0.517188 

> <ConfScorePBest>
0.0220119 

> <ConfTolerance>
0.566669 

> <RosettaParamsInstructions>
M  ROOT 3
M  POLY_N_BB 3
M  POLY_CA_BB 4
M  POLY_C_BB 2
M  POLY_O_BB 5
M  POLY_IGNORE 9 10 11 12 13 14 15 16 17 18 
M  POLY_UPPER 6
M  POLY_LOWER 8
M  POLY_CHG 0
M  POLY_PROPERTIES ALPHA_AA L_AA PROTEIN AROMATIC POLYMER 
M  END

$$$$



 36 37  0  0  0  0  0  0  0  0999 V2000
   -2.9416    1.5604    2.2042 H   0  0  0  1  0  0  0  0  0  0  0  0
   -1.1277    0.5445    2.5813 C   0  0  0  1  0  0  0  0  0  0  0  0
   -1.9153    2.6017    3.6656 N   0  0  0  1  0  0  0  0  0  0  0  0
   -1.9310    1.8260    2.4343 C   0  0  0  1  0  0  0  0  0  0  0  0
    0.0534    0.5763    2.9165 O   0  0  0  1  0  0  0  0  0  0  0  0
   -1.7443   -0.6150    2.3353 N   0  0  0  1  0  0  0  0  0  0  0  0
   -1.0891    3.0607    3.9248 H   0  0  0  1  0  0  0  0  0  0  0  0
   -2.9879    2.7097    4.4547 C   0  0  0  1  0  0  0  0  0  0  0  0
   -1.0930   -1.9003    2.5389 C   0  0  0  1  0  0  0  0  0  0  0  0
   -2.8454    3.6513    5.6347 C   0  0  0  1  0  0  0  0  0  0  0  0
   -4.0329    2.0926    4.2529 O   0  0  0  1  0  0  0  0  0  0  0  0
   -2.6673   -0.5993    2.0063 H   0  0  0  1  0  0  0  0  0  0  0  0
   -0.9581   -2.0704    3.5866 H   0  0  0  1  0  0  0  0  0  0  0  0
   -0.1399   -1.8979    2.0526 H   0  0  0  1  0  0  0  0  0  0  0  0
   -1.7021   -2.6777    2.1271 H   0  0  0  1  0  0  0  0  0  0  0  0
   -2.9983    3.1095    6.5446 H   0  0  0  1  0  0  0  0  0  0  0  0
   -3.5735    4.4317    5.5579 H   0  0  0  1  0  0  0  0  0  0  0  0
   -1.8639    4.0773    5.6342 H   0  0  0  1  0  0  0  0  0  0  0  0
   -1.4036    2.7047    1.2989 C   0  0  0  1  0  0  0  0  0  0  0  0
   -2.3546    3.8068    0.9157 C   0  0  0  1  0  0  0  0  0  0  0  0
   -2.5493    4.9873    1.5702 C   0  0  0  1  0  0  0  0  0  0  0  0
   -3.5079    5.7309    0.9308 N   0  0  0  1  0  0  0  0  0  0  0  0
   -3.9412    5.0477   -0.1725 C   0  0  0  1  0  0  0  0  0  0  0  0
   -4.8894    5.3899   -1.1405 C   0  0  0  1  0  0  0  0  0  0  0  0
   -5.1295    4.4781   -2.1454 C   0  0  0  1  0  0  0  0  0  0  0  0
   -4.4599    3.2595   -2.1949 C   0  0  0  1  0  0  0  0  0  0  0  0
   -3.5208    2.9236   -1.2449 C   0  0  0  1  0  0  0  0  0  0  0  0
   -3.2429    3.8291   -0.2153 C   0  0  0  1  0  0  0  0  0  0  0  0
   -4.7346    2.3934   -3.1891 F   0  0  0  1  0  0  0  0  0  0  0  0
   -1.2340    2.0877    0.4413 H   0  0  0  1  0  0  0  0  0  0  0  0
   -0.4795    3.1452    1.6102 H   0  0  0  1  0  0  0  0  0  0  0  0
   -2.0437    5.2812    2.4302 H   0  0  0  1  0  0  0  0  0  0  0  0
   -3.8307    6.6105    1.2180 H   0  0  0  1  0  0  0  0  0  0  0  0
   -5.3947    6.2982   -1.1039 H   0  0  0  1  0  0  0  0  0  0  0  0
   -5.8266    4.7057   -2.8828 H   0  0  0  1  0  0  0  0  0  0  0  0
   -3.0256    2.0102   -1.2923 H   0  0  0  1  0  0  0  0  0  0  0  0
  1  4  1  0  0  0  0
  2  4  1  0  0  0  0
  2  5  2  0  0  0  0
  2  6  1  0  0  0  0
  3  4  1  0  0  0  0
  3  7  1  0  0  0  0
  3  8  1  0  0  0  0
  4 19  1  0  0  0  0
  6  9  1  0  0  0  0
  6 12  1  0  0  0  0
  8 10  1  0  0  0  0
  8 11  2  0  0  0  0
  9 13  1  0  0  0  0
  9 14  1  0  0  0  0
  9 15  1  0  0  0  0
 10 16  1  0  0  0  0
 10 17  1  0  0  0  0
 10 18  1  0  0  0  0
 19 20  1  0  0  0  0
 19 30  1  0  0  0  0
 19 31  1  0  0  0  0
 20 21  4  0  0  0  0
 20 28  4  0  0  0  0
 21 22  4  0  0  0  0
 21 32  1  0  0  0  0
 22 23  4  0  0  0  0
 22 33  1  0  0  0  0
 23 24  4  0  0  0  0
 23 28  4  0  0  0  0
 24 25  4  0  0  0  0
 24 34  1  0  0  0  0
 25 26  4  0  0  0  0
 25 35  1  0  0  0  0
 26 27  4  0  0  0  0
 26 29  1  0  0  0  0
 27 28  4  0  0  0  0
 27 36  1  0  0  0  0
M  END
> <BCLConfClusterSize>
1

> <ConfClashScore>
0 

> <ConfOneFourInteractionScore>
-0.974251 

> <ConfScore>
0.520737 

> <ConfScorePBest>
0.0216461 

> <ConfTolerance>
0.485922 

> <RosettaParamsInstructions>
M  ROOT 3
M  POLY_N_BB 3
M  POLY_CA_BB 4
M  POLY_C_BB 2
M  POLY_O_BB 5
M  POLY_IGNORE 9 10 11 12 13 14 15 16 17 18 
M  POLY_UPPER 6
M  POLY_LOWER 8
M  POLY_CHG 0
M  POLY_PROPERTIES ALPHA_AA L_AA PROTEIN AROMATIC POLYMER 
M  END

$$$$



 36 37  0  0  0  0  0  0  0  0999 V2000
   -2.8241    1.1814    0.8878 H   0  0  0  1  0  0  0  0  0  0  0  0
   -1.1078    0.2640    1.7351 C   0  0  0  1  0  0  0  0  0  0  0  0
   -2.7832    1.4915    2.9410 N   0  0  0  1  0  0  0  0  0  0  0  0
   -2.1105    1.4031    1.6536 C   0  0  0  1  0  0  0  0  0  0  0  0
   -0.1881    0.2920    2.5370 O   0  0  0  1  0  0  0  0  0  0  0  0
   -1.2698   -0.6994    0.8237 N   0  0  0  1  0  0  0  0  0  0  0  0
   -2.3009    1.8789    3.7011 H   0  0  0  1  0  0  0  0  0  0  0  0
   -4.0408    1.0608    3.1237 C   0  0  0  1  0  0  0  0  0  0  0  0
   -0.3043   -1.7840    0.7273 C   0  0  0  1  0  0  0  0  0  0  0  0
   -4.6481    1.3577    4.4809 C   0  0  0  1  0  0  0  0  0  0  0  0
   -4.6762    0.4618    2.2571 O   0  0  0  1  0  0  0  0  0  0  0  0
   -2.0405   -0.6755    0.2187 H   0  0  0  1  0  0  0  0  0  0  0  0
    0.2491   -1.8518    1.6405 H   0  0  0  1  0  0  0  0  0  0  0  0
    0.3675   -1.5922   -0.0832 H   0  0  0  1  0  0  0  0  0  0  0  0
   -0.8197   -2.7055    0.5536 H   0  0  0  1  0  0  0  0  0  0  0  0
   -4.0486    0.9103    5.2461 H   0  0  0  1  0  0  0  0  0  0  0  0
   -5.6388    0.9556    4.5237 H   0  0  0  1  0  0  0  0  0  0  0  0
   -4.6855    2.4165    4.6308 H   0  0  0  1  0  0  0  0  0  0  0  0
   -1.4036    2.7047    1.2989 C   0  0  0  1  0  0  0  0  0  0  0  0
   -2.3546    3.8068    0.9157 C   0  0  0  1  0  0  0  0  0  0  0  0
   -2.5493    4.9873    1.5702 C   0  0  0  1  0  0  0  0  0  0  0  0
   -3.5079    5.7309    0.9308 N   0  0  0  1  0  0  0  0  0  0  0  0
   -3.9412    5.0477   -0.1725 C   0  0  0  1  0  0  0  0  0  0  0  0
   -4.8894    5.3899   -1.1405 C   0  0  0  1  0  0  0  0  0  0  0  0
   -5.1295    4.4781   -2.1454 C   0  0  0  1  0  0  0  0  0  0  0  0
   -4.4599    3.2595   -2.1949 C   0  0  0  1  0  0  0  0  0  0  0  0
   -3.5208    2.9236   -1.2449 C   0  0  0  1  0  0  0  0  0  0  0  0
   -3.2429    3.8291   -0.2153 C   0  0  0  1  0  0  0  0  0  0  0  0
   -4.7346    2.3934   -3.1891 F   0  0  0  1  0  0  0  0  0  0  0  0
   -0.7453    2.5213    0.4755 H   0  0  0  1  0  0  0  0  0  0  0  0
   -0.8346    3.0252    2.1465 H   0  0  0  1  0  0  0  0  0  0  0  0
   -2.0437    5.2812    2.4302 H   0  0  0  1  0  0  0  0  0  0  0  0
   -3.8307    6.6105    1.2180 H   0  0  0  1  0  0  0  0  0  0  0  0
   -5.3947    6.2982   -1.1039 H   0  0  0  1  0  0  0  0  0  0  0  0
   -5.8266    4.7057   -2.8828 H   0  0  0  1  0  0  0  0  0  0  0  0
   -3.0256    2.0102   -1.2923 H   0  0  0  1  0  0  0  0  0  0  0  0
  1  4  1  0  0  0  0
  2  4  1  0  0  0  0
  2  5  2  0  0  0  0
  2  6  1  0  0  0  0
  3  4  1  0  0  0  0
  3  7  1  0  0  0  0
  3  8  1  0  0  0  0
  4 19  1  0  0  0  0
  6  9  1  0  0  0  0
  6 12  1  0  0  0  0
  8 10  1  0  0  0  0
  8 11  2  0  0  0  0
  9 13  1  0  0  0  0
  9 14  1  0  0  0  0
  9 15  1  0  0  0  0
 10 16  1  0  0  0  0
 10 17  1  0  0  0  0
 10 18  1  0  0  0  0
 19 20  1  0  0  0  0
 19 30  1  0  0  0  0
 19 31  1  0  0  0  0
 20 21  4  0  0  0  0
 20 28  4  0  0  0  0
 21 22  4  0  0  0  0
 21 32  1  0  0  0  0
 22 23  4  0  0  0  0
 22 33  1  0  0  0  0
 23 24  4  0  0  0  0
 23 28  4  0  0  0  0
 24 25  4  0  0  0  0
 24 34  1  0  0  0  0
 25 26  4  0  0  0  0
 25 35  1  0  0  0  0
 26 27  4  0  0  0  0
 26 29  1  0  0  0  0
 27 28  4  0  0  0  0
 27 36  1  0  0  0  0
M  END
> <BCLConfClusterSize>
1

> <ConfClashScore>
0 

> <ConfOneFourInteractionScore>
-0.974251 

> <ConfScore>
0.539491 

> <ConfScorePBest>
0.0212803 

> <ConfTolerance>
0.474474 

> <RosettaParamsInstructions>
M  ROOT 3
M  POLY_N_BB 3
M  POLY_CA_BB 4
M  POLY_C_BB 2
M  POLY_O_BB 5
M  POLY_IGNORE 9 10 11 12 13 14 15 16 17 18 
M  POLY_UPPER 6
M  POLY_LOWER 8
M  POLY_CHG 0
M  POLY_PROPERTIES ALPHA_AA L_AA PROTEIN AROMATIC POLYMER 
M  END

$$$$



 36 37  0  0  0  0  0  0  0  0999 V2000
   -1.3178    1.7173   -0.5501 H   0  0  0  1  0  0  0  0  0  0  0  0
   -0.4401    0.4184    0.8417 C   0  0  0  1  0  0  0  0  0  0  0  0
   -2.8357    0.8376    0.5090 N   0  0  0  1  0  0  0  0  0  0  0  0
   -1.5087    1.4303    0.4629 C   0  0  0  1  0  0  0  0  0  0  0  0
    0.6849    0.4913    0.3739 O   0  0  0  1  0  0  0  0  0  0  0  0
   -0.7686   -0.5494    1.6989 N   0  0  0  1  0  0  0  0  0  0  0  0
   -3.4770    1.1647    1.1740 H   0  0  0  1  0  0  0  0  0  0  0  0
   -3.2128   -0.1416   -0.3273 C   0  0  0  1  0  0  0  0  0  0  0  0
    0.1266   -1.6065    2.1449 C   0  0  0  1  0  0  0  0  0  0  0  0
   -4.6010   -0.6975   -0.1042 C   0  0  0  1  0  0  0  0  0  0  0  0
   -2.4890   -0.5723   -1.2240 O   0  0  0  1  0  0  0  0  0  0  0  0
   -1.6815   -0.5485    2.0551 H   0  0  0  1  0  0  0  0  0  0  0  0
   -0.3708   -2.2121    2.8733 H   0  0  0  1  0  0  0  0  0  0  0  0
    1.0021   -1.1720    2.5804 H   0  0  0  1  0  0  0  0  0  0  0  0
    0.4068   -2.2126    1.3088 H   0  0  0  1  0  0  0  0  0  0  0  0
   -5.0213   -0.2649    0.7795 H   0  0  0  1  0  0  0  0  0  0  0  0
   -4.5452   -1.7599    0.0109 H   0  0  0  1  0  0  0  0  0  0  0  0
   -5.2189   -0.4614   -0.9452 H   0  0  0  1  0  0  0  0  0  0  0  0
   -1.4072    2.6944    1.3008 C   0  0  0  1  0  0  0  0  0  0  0  0
   -2.3615    3.8070    0.9162 C   0  0  0  1  0  0  0  0  0  0  0  0
   -2.5407    4.9942    1.5800 C   0  0  0  1  0  0  0  0  0  0  0  0
   -3.5119    5.7436    0.9336 N   0  0  0  1  0  0  0  0  0  0  0  0
   -3.9486    5.0413   -0.1721 C   0  0  0  1  0  0  0  0  0  0  0  0
   -4.8874    5.3840   -1.1398 C   0  0  0  1  0  0  0  0  0  0  0  0
   -5.1358    4.4783   -2.1456 C   0  0  0  1  0  0  0  0  0  0  0  0
   -4.4555    3.2566   -2.1992 C   0  0  0  1  0  0  0  0  0  0  0  0
   -3.5241    2.9215   -1.2499 C   0  0  0  1  0  0  0  0  0  0  0  0
   -3.2475    3.8184   -0.2092 C   0  0  0  1  0  0  0  0  0  0  0  0
   -4.7198    2.3951   -3.2002 F   0  0  0  1  0  0  0  0  0  0  0  0
   -0.4092    3.0701    1.2118 H   0  0  0  1  0  0  0  0  0  0  0  0
   -1.6003    2.4314    2.3198 H   0  0  0  1  0  0  0  0  0  0  0  0
   -2.0273    5.2870    2.4358 H   0  0  0  1  0  0  0  0  0  0  0  0
   -3.8347    6.6251    1.2147 H   0  0  0  1  0  0  0  0  0  0  0  0
   -5.3858    6.2961   -1.1042 H   0  0  0  1  0  0  0  0  0  0  0  0
   -5.8398    4.7051   -2.8768 H   0  0  0  1  0  0  0  0  0  0  0  0
   -3.0272    2.0093   -1.3019 H   0  0  0  1  0  0  0  0  0  0  0  0
  1  4  1  0  0  0  0
  2  4  1  0  0  0  0
  2  5  2  0  0  0  0
  2  6  1  0  0  0  0
  3  4  1  0  0  0  0
  3  7  1  0  0  0  0
  3  8  1  0  0  0  0
  4 19  1  0  0  0  0
  6  9  1  0  0  0  0
  6 12  1  0  0  0  0
  8 10  1  0  0  0  0
  8 11  2  0  0  0  0
  9 13  1  0  0  0  0
  9 14  1  0  0  0  0
  9 15  1  0  0  0  0
 10 16  1  0  0  0  0
 10 17  1  0  0  0  0
 10 18  1  0  0  0  0
 19 20  1  0  0  0  0
 19 30  1  0  0  0  0
 19 31  1  0  0  0  0
 20 21  4  0  0  0  0
 20 28  4  0  0  0  0
 21 22  4  0  0  0  0
 21 32  1  0  0  0  0
 22 23  4  0  0  0  0
 22 33  1  0  0  0  0
 23 24  4  0  0  0  0
 23 28  4  0  0  0  0
 24 25  4  0  0  0  0
 24 34  1  0  0  0  0
 25 26  4  0  0  0  0
 25 35  1  0  0  0  0
 26 27  4  0  0  0  0
 26 29  1  0  0  0  0
 27 28  4  0  0  0  0
 27 36  1  0  0  0  0
M  END
> <BCLConfClusterSize>
1

> <ConfClashScore>
0 

> <ConfOneFourInteractionScore>
-0.949001 

> <ConfScore>
0.541828 

> <ConfScorePBest>
0.0209145 

> <ConfTolerance>
0.990992 

> <RosettaParamsInstructions>
M  ROOT 3
M  POLY_N_BB 3
M  POLY_CA_BB 4
M  POLY_C_BB 2
M  POLY_O_BB 5
M  POLY_IGNORE 9 10 11 12 13 14 15 16 17 18 
M  POLY_UPPER 6
M  POLY_LOWER 8
M  POLY_CHG 0
M  POLY_PROPERTIES ALPHA_AA L_AA PROTEIN AROMATIC POLYMER 
M  END

$$$$



 36 37  0  0  0  0  0  0  0  0999 V2000
    0.0343    3.0211   -0.2092 H   0  0  0  1  0  0  0  0  0  0  0  0
    0.5841    4.2811    1.3868 C   0  0  0  1  0  0  0  0  0  0  0  0
    0.8241    1.8074    1.2603 N   0  0  0  1  0  0  0  0  0  0  0  0
    0.0347    2.9665    0.8594 C   0  0  0  1  0  0  0  0  0  0  0  0
    0.5843    4.5356    2.5883 O   0  0  0  1  0  0  0  0  0  0  0  0
    1.0581    5.1237    0.4646 N   0  0  0  1  0  0  0  0  0  0  0  0
    0.8420    1.5516    2.2062 H   0  0  0  1  0  0  0  0  0  0  0  0
    1.5236    1.0822    0.3829 C   0  0  0  1  0  0  0  0  0  0  0  0
    1.6796    6.4081    0.7506 C   0  0  0  1  0  0  0  0  0  0  0  0
    2.3135   -0.0738    0.9651 C   0  0  0  1  0  0  0  0  0  0  0  0
    1.5382    1.3220   -0.8237 O   0  0  0  1  0  0  0  0  0  0  0  0
    0.9814    4.8567   -0.4752 H   0  0  0  1  0  0  0  0  0  0  0  0
    1.2680    6.8112    1.6523 H   0  0  0  1  0  0  0  0  0  0  0  0
    1.4931    7.0825   -0.0589 H   0  0  0  1  0  0  0  0  0  0  0  0
    2.7347    6.2751    0.8688 H   0  0  0  1  0  0  0  0  0  0  0  0
    1.6582   -0.7086    1.5240 H   0  0  0  1  0  0  0  0  0  0  0  0
    3.0779    0.3059    1.6103 H   0  0  0  1  0  0  0  0  0  0  0  0
    2.7619   -0.6345    0.1716 H   0  0  0  1  0  0  0  0  0  0  0  0
   -1.3980    2.6987    1.3013 C   0  0  0  1  0  0  0  0  0  0  0  0
   -2.3550    3.8075    0.9156 C   0  0  0  1  0  0  0  0  0  0  0  0
   -2.5498    4.9879    1.5700 C   0  0  0  1  0  0  0  0  0  0  0  0
   -3.5084    5.7314    0.9305 N   0  0  0  1  0  0  0  0  0  0  0  0
   -3.9416    5.0482   -0.1727 C   0  0  0  1  0  0  0  0  0  0  0  0
   -4.8898    5.3902   -1.1408 C   0  0  0  1  0  0  0  0  0  0  0  0
   -5.1298    4.4783   -2.1456 C   0  0  0  1  0  0  0  0  0  0  0  0
   -4.4601    3.2597   -2.1950 C   0  0  0  1  0  0  0  0  0  0  0  0
   -3.5210    2.9239   -1.2449 C   0  0  0  1  0  0  0  0  0  0  0  0
   -3.2433    3.8296   -0.2154 C   0  0  0  1  0  0  0  0  0  0  0  0
   -4.7347    2.3935   -3.1891 F   0  0  0  1  0  0  0  0  0  0  0  0
   -1.4117    2.5920    2.3659 H   0  0  0  1  0  0  0  0  0  0  0  0
   -1.7302    1.7887    0.8469 H   0  0  0  1  0  0  0  0  0  0  0  0
   -2.0443    5.2819    2.4301 H   0  0  0  1  0  0  0  0  0  0  0  0
   -3.8313    6.6110    1.2177 H   0  0  0  1  0  0  0  0  0  0  0  0
   -5.3951    6.2984   -1.1043 H   0  0  0  1  0  0  0  0  0  0  0  0
   -5.8269    4.7058   -2.8831 H   0  0  0  1  0  0  0  0  0  0  0  0
   -3.0257    2.0106   -1.2922 H   0  0  0  1  0  0  0  0  0  0  0  0
  1  4  1  0  0  0  0
  2  4  1  0  0  0  0
  2  5  2  0  0  0  0
  2  6  1  0  0  0  0
  3  4  1  0  0  0  0
  3  7  1  0  0  0  0
  3  8  1  0  0  0  0
  4 19  1  0  0  0  0
  6  9  1  0  0  0  0
  6 12  1  0  0  0  0
  8 10  1  0  0  0  0
  8 11  2  0  0  0  0
  9 13  1  0  0  0  0
  9 14  1  0  0  0  0
  9 15  1  0  0  0  0
 10 16  1  0  0  0  0
 10 17  1  0  0  0  0
 10 18  1  0  0  0  0
 19 20  1  0  0  0  0
 19 30  1  0  0  0  0
 19 31  1  0  0  0  0
 20 21  4  0  0  0  0
 20 28  4  0  0  0  0
 21 22  4  0  0  0  0
 21 32  1  0  0  0  0
 22 23  4  0  0  0  0
 22 33  1  0  0  0  0
 23 24  4  0  0  0  0
 23 28  4  0  0  0  0
 24 25  4  0  0  0  0
 24 34  1  0  0  0  0
 25 26  4  0  0  0  0
 25 35  1  0  0  0  0
 26 27  4  0  0  0  0
 26 29  1  0  0  0  0
 27 28  4  0  0  0  0
 27 36  1  0  0  0  0
M  END
> <BCLConfClusterSize>
1

> <ConfClashScore>
0 

> <ConfOneFourInteractionScore>
-0.975259 

> <ConfScore>
0.549324 

> <ConfScorePBest>
0.0205487 

> <ConfTolerance>
0.423971 

> <RosettaParamsInstructions>
M  ROOT 3
M  POLY_N_BB 3
M  POLY_CA_BB 4
M  POLY_C_BB 2
M  POLY_O_BB 5
M  POLY_IGNORE 9 10 11 12 13 14 15 16 17 18 
M  POLY_UPPER 6
M  POLY_LOWER 8
M  POLY_CHG 0
M  POLY_PROPERTIES ALPHA_AA L_AA PROTEIN AROMATIC POLYMER 
M  END

$$$$



 36 37  0  0  0  0  0  0  0  0999 V2000
   -2.0946    2.4315    3.2974 H   0  0  0  1  0  0  0  0  0  0  0  0
   -3.3772    1.3664    1.9891 C   0  0  0  1  0  0  0  0  0  0  0  0
   -1.1276    0.7010    2.6808 N   0  0  0  1  0  0  0  0  0  0  0  0
   -1.9993    1.8354    2.4140 C   0  0  0  1  0  0  0  0  0  0  0  0
   -3.5263    0.6416    1.0066 O   0  0  0  1  0  0  0  0  0  0  0  0
   -4.3972    1.7115    2.7909 N   0  0  0  1  0  0  0  0  0  0  0  0
   -0.8535    0.1291    1.9337 H   0  0  0  1  0  0  0  0  0  0  0  0
   -0.6844    0.4096    3.9193 C   0  0  0  1  0  0  0  0  0  0  0  0
   -5.7561    1.2419    2.5659 C   0  0  0  1  0  0  0  0  0  0  0  0
    0.1016   -0.8848    3.9965 C   0  0  0  1  0  0  0  0  0  0  0  0
   -0.8790    1.0994    4.9066 O   0  0  0  1  0  0  0  0  0  0  0  0
   -4.2205    2.3002    3.5542 H   0  0  0  1  0  0  0  0  0  0  0  0
   -5.9407    1.1732    1.5142 H   0  0  0  1  0  0  0  0  0  0  0  0
   -6.4482    1.9297    3.0051 H   0  0  0  1  0  0  0  0  0  0  0  0
   -5.8785    0.2775    3.0130 H   0  0  0  1  0  0  0  0  0  0  0  0
   -0.4245   -1.6540    3.4707 H   0  0  0  1  0  0  0  0  0  0  0  0
    0.2192   -1.1699    5.0211 H   0  0  0  1  0  0  0  0  0  0  0  0
    1.0647   -0.7440    3.5521 H   0  0  0  1  0  0  0  0  0  0  0  0
   -1.4036    2.7047    1.2989 C   0  0  0  1  0  0  0  0  0  0  0  0
   -2.3546    3.8068    0.9157 C   0  0  0  1  0  0  0  0  0  0  0  0
   -2.5493    4.9873    1.5702 C   0  0  0  1  0  0  0  0  0  0  0  0
   -3.5079    5.7309    0.9308 N   0  0  0  1  0  0  0  0  0  0  0  0
   -3.9412    5.0477   -0.1725 C   0  0  0  1  0  0  0  0  0  0  0  0
   -4.8894    5.3899   -1.1405 C   0  0  0  1  0  0  0  0  0  0  0  0
   -5.1295    4.4781   -2.1454 C   0  0  0  1  0  0  0  0  0  0  0  0
   -4.4599    3.2595   -2.1949 C   0  0  0  1  0  0  0  0  0  0  0  0
   -3.5208    2.9236   -1.2449 C   0  0  0  1  0  0  0  0  0  0  0  0
   -3.2429    3.8291   -0.2153 C   0  0  0  1  0  0  0  0  0  0  0  0
   -4.7346    2.3934   -3.1891 F   0  0  0  1  0  0  0  0  0  0  0  0
   -1.2116    2.0933    0.4420 H   0  0  0  1  0  0  0  0  0  0  0  0
   -0.4867    3.1362    1.6424 H   0  0  0  1  0  0  0  0  0  0  0  0
   -2.0437    5.2812    2.4302 H   0  0  0  1  0  0  0  0  0  0  0  0
   -3.8307    6.6105    1.2180 H   0  0  0  1  0  0  0  0  0  0  0  0
   -5.3947    6.2982   -1.1039 H   0  0  0  1  0  0  0  0  0  0  0  0
   -5.8266    4.7057   -2.8828 H   0  0  0  1  0  0  0  0  0  0  0  0
   -3.0256    2.0102   -1.2923 H   0  0  0  1  0  0  0  0  0  0  0  0
  1  4  1  0  0  0  0
  2  4  1  0  0  0  0
  2  5  2  0  0  0  0
  2  6  1  0  0  0  0
  3  4  1  0  0  0  0
  3  7  1  0  0  0  0
  3  8  1  0  0  0  0
  4 19  1  0  0  0  0
  6  9  1  0  0  0  0
  6 12  1  0  0  0  0
  8 10  1  0  0  0  0
  8 11  2  0  0  0  0
  9 13  1  0  0  0  0
  9 14  1  0  0  0  0
  9 15  1  0  0  0  0
 10 16  1  0  0  0  0
 10 17  1  0  0  0  0
 10 18  1  0  0  0  0
 19 20  1  0  0  0  0
 19 30  1  0  0  0  0
 19 31  1  0  0  0  0
 20 21  4  0  0  0  0
 20 28  4  0  0  0  0
 21 22  4  0  0  0  0
 21 32  1  0  0  0  0
 22 23  4  0  0  0  0
 22 33  1  0  0  0  0
 23 24  4  0  0  0  0
 23 28  4  0  0  0  0
 24 25  4  0  0  0  0
 24 34  1  0  0  0  0
 25 26  4  0  0  0  0
 25 35  1  0  0  0  0
 26 27  4  0  0  0  0
 26 29  1  0  0  0  0
 27 28  4  0  0  0  0
 27 36  1  0  0  0  0
M  END
> <BCLConfClusterSize>
1

> <ConfClashScore>
0 

> <ConfOneFourInteractionScore>
-0.981931 

> <ConfScore>
0.54979 

> <ConfScorePBest>
0.0201829 

> <ConfTolerance>
0.455674 

> <RosettaParamsInstructions>
M  ROOT 3
M  POLY_N_BB 3
M  POLY_CA_BB 4
M  POLY_C_BB 2
M  POLY_O_BB 5
M  POLY_IGNORE 9 10 11 12 13 14 15 16 17 18 
M  POLY_UPPER 6
M  POLY_LOWER 8
M  POLY_CHG 0
M  POLY_PROPERTIES ALPHA_AA L_AA PROTEIN AROMATIC POLYMER 
M  END

$$$$



 36 37  0  0  0  0  0  0  0  0999 V2000
    0.5400    2.0192    0.8199 H   0  0  0  1  0  0  0  0  0  0  0  0
   -0.4082    2.5552   -0.9963 C   0  0  0  1  0  0  0  0  0  0  0  0
    0.5267    4.0803    0.6683 N   0  0  0  1  0  0  0  0  0  0  0  0
   -0.1201    2.7911    0.4834 C   0  0  0  1  0  0  0  0  0  0  0  0
   -0.5125    1.4356   -1.4710 O   0  0  0  1  0  0  0  0  0  0  0  0
   -0.5530    3.6127   -1.8092 N   0  0  0  1  0  0  0  0  0  0  0  0
    0.0718    4.7655    1.2011 H   0  0  0  1  0  0  0  0  0  0  0  0
    1.7195    4.3631    0.1370 C   0  0  0  1  0  0  0  0  0  0  0  0
   -0.8676    3.4152   -3.2163 C   0  0  0  1  0  0  0  0  0  0  0  0
    2.2937    5.7207    0.4922 C   0  0  0  1  0  0  0  0  0  0  0  0
    2.3280    3.5844   -0.5957 O   0  0  0  1  0  0  0  0  0  0  0  0
   -0.4467    4.5202   -1.4546 H   0  0  0  1  0  0  0  0  0  0  0  0
   -1.9285    3.4437   -3.3525 H   0  0  0  1  0  0  0  0  0  0  0  0
   -0.4927    2.4651   -3.5353 H   0  0  0  1  0  0  0  0  0  0  0  0
   -0.4128    4.1914   -3.7955 H   0  0  0  1  0  0  0  0  0  0  0  0
    2.0711    5.9464    1.5142 H   0  0  0  1  0  0  0  0  0  0  0  0
    1.8607    6.4674   -0.1401 H   0  0  0  1  0  0  0  0  0  0  0  0
    3.3545    5.7065    0.3533 H   0  0  0  1  0  0  0  0  0  0  0  0
   -1.4036    2.7047    1.2989 C   0  0  0  1  0  0  0  0  0  0  0  0
   -2.3546    3.8068    0.9157 C   0  0  0  1  0  0  0  0  0  0  0  0
   -2.5493    4.9873    1.5702 C   0  0  0  1  0  0  0  0  0  0  0  0
   -3.5079    5.7309    0.9308 N   0  0  0  1  0  0  0  0  0  0  0  0
   -3.9412    5.0477   -0.1725 C   0  0  0  1  0  0  0  0  0  0  0  0
   -4.8894    5.3899   -1.1405 C   0  0  0  1  0  0  0  0  0  0  0  0
   -5.1295    4.4781   -2.1454 C   0  0  0  1  0  0  0  0  0  0  0  0
   -4.4599    3.2595   -2.1949 C   0  0  0  1  0  0  0  0  0  0  0  0
   -3.5208    2.9236   -1.2449 C   0  0  0  1  0  0  0  0  0  0  0  0
   -3.2429    3.8291   -0.2153 C   0  0  0  1  0  0  0  0  0  0  0  0
   -4.7346    2.3934   -3.1891 F   0  0  0  1  0  0  0  0  0  0  0  0
   -1.1653    2.7926    2.3383 H   0  0  0  1  0  0  0  0  0  0  0  0
   -1.8710    1.7594    1.1182 H   0  0  0  1  0  0  0  0  0  0  0  0
   -2.0437    5.2812    2.4302 H   0  0  0  1  0  0  0  0  0  0  0  0
   -3.8307    6.6105    1.2180 H   0  0  0  1  0  0  0  0  0  0  0  0
   -5.3947    6.2982   -1.1039 H   0  0  0  1  0  0  0  0  0  0  0  0
   -5.8266    4.7057   -2.8828 H   0  0  0  1  0  0  0  0  0  0  0  0
   -3.0256    2.0102   -1.2923 H   0  0  0  1  0  0  0  0  0  0  0  0
  1  4  1  0  0  0  0
  2  4  1  0  0  0  0
  2  5  2  0  0  0  0
  2  6  1  0  0  0  0
  3  4  1  0  0  0  0
  3  7  1  0  0  0  0
  3  8  1  0  0  0  0
  4 19  1  0  0  0  0
  6  9  1  0  0  0  0
  6 12  1  0  0  0  0
  8 10  1  0  0  0  0
  8 11  2  0  0  0  0
  9 13  1  0  0  0  0
  9 14  1  0  0  0  0
  9 15  1  0  0  0  0
 10 16  1  0  0  0  0
 10 17  1  0  0  0  0
 10 18  1  0  0  0  0
 19 20  1  0  0  0  0
 19 30  1  0  0  0  0
 19 31  1  0  0  0  0
 20 21  4  0  0  0  0
 20 28  4  0  0  0  0
 21 22  4  0  0  0  0
 21 32  1  0  0  0  0
 22 23  4  0  0  0  0
 22 33  1  0  0  0  0
 23 24  4  0  0  0  0
 23 28  4  0  0  0  0
 24 25  4  0  0  0  0
 24 34  1  0  0  0  0
 25 26  4  0  0  0  0
 25 35  1  0  0  0  0
 26 27  4  0  0  0  0
 26 29  1  0  0  0  0
 27 28  4  0  0  0  0
 27 36  1  0  0  0  0
M  END
> <BCLConfClusterSize>
1

> <ConfClashScore>
0 

> <ConfOneFourInteractionScore>
-0.950605 

> <ConfScore>
0.561833 

> <ConfScorePBest>
0.0198171 

> <ConfTolerance>
0.77886 

> <RosettaParamsInstructions>
M  ROOT 3
M  POLY_N_BB 3
M  POLY_CA_BB 4
M  POLY_C_BB 2
M  POLY_O_BB 5
M  POLY_IGNORE 9 10 11 12 13 14 15 16 17 18 
M  POLY_UPPER 6
M  POLY_LOWER 8
M  POLY_CHG 0
M  POLY_PROPERTIES ALPHA_AA L_AA PROTEIN AROMATIC POLYMER 
M  END

$$$$



 36 37  0  0  0  0  0  0  0  0999 V2000
    0.1586    3.4591    0.0938 H   0  0  0  1  0  0  0  0  0  0  0  0
    0.7972    1.5879    0.8275 C   0  0  0  1  0  0  0  0  0  0  0  0
   -0.8845    2.0114   -0.9467 N   0  0  0  1  0  0  0  0  0  0  0  0
   -0.2825    2.5030    0.2836 C   0  0  0  1  0  0  0  0  0  0  0  0
    0.8397    0.4012    0.5057 O   0  0  0  1  0  0  0  0  0  0  0  0
    1.7031    2.1111    1.6688 N   0  0  0  1  0  0  0  0  0  0  0  0
   -1.4109    1.1852   -0.9185 H   0  0  0  1  0  0  0  0  0  0  0  0
   -0.7445    2.6472   -2.1134 C   0  0  0  1  0  0  0  0  0  0  0  0
    2.6899    1.2916    2.3564 C   0  0  0  1  0  0  0  0  0  0  0  0
   -1.4234    1.9973   -3.3034 C   0  0  0  1  0  0  0  0  0  0  0  0
   -0.1145    3.6851   -2.2329 O   0  0  0  1  0  0  0  0  0  0  0  0
    1.6998    3.0785    1.8254 H   0  0  0  1  0  0  0  0  0  0  0  0
    2.2726    0.3283    2.5631 H   0  0  0  1  0  0  0  0  0  0  0  0
    2.9678    1.7643    3.2752 H   0  0  0  1  0  0  0  0  0  0  0  0
    3.5547    1.1798    1.7363 H   0  0  0  1  0  0  0  0  0  0  0  0
   -1.9450    2.7420   -3.8676 H   0  0  0  1  0  0  0  0  0  0  0  0
   -2.1180    1.2600   -2.9586 H   0  0  0  1  0  0  0  0  0  0  0  0
   -0.6864    1.5314   -3.9236 H   0  0  0  1  0  0  0  0  0  0  0  0
   -1.4132    2.7010    1.2981 C   0  0  0  1  0  0  0  0  0  0  0  0
   -2.3611    3.8063    0.9162 C   0  0  0  1  0  0  0  0  0  0  0  0
   -2.5401    4.9935    1.5801 C   0  0  0  1  0  0  0  0  0  0  0  0
   -3.5113    5.7430    0.9339 N   0  0  0  1  0  0  0  0  0  0  0  0
   -3.9481    5.0408   -0.1718 C   0  0  0  1  0  0  0  0  0  0  0  0
   -4.8869    5.3837   -1.1395 C   0  0  0  1  0  0  0  0  0  0  0  0
   -5.1355    4.4781   -2.1453 C   0  0  0  1  0  0  0  0  0  0  0  0
   -4.4552    3.2563   -2.1991 C   0  0  0  1  0  0  0  0  0  0  0  0
   -3.5238    2.9211   -1.2499 C   0  0  0  1  0  0  0  0  0  0  0  0
   -3.2472    3.8178   -0.2091 C   0  0  0  1  0  0  0  0  0  0  0  0
   -4.7197    2.3950   -3.2002 F   0  0  0  1  0  0  0  0  0  0  0  0
   -0.9809    2.9361    2.2482 H   0  0  0  1  0  0  0  0  0  0  0  0
   -1.9667    1.7884    1.3735 H   0  0  0  1  0  0  0  0  0  0  0  0
   -2.0267    5.2861    2.4359 H   0  0  0  1  0  0  0  0  0  0  0  0
   -3.8341    6.6245    1.2151 H   0  0  0  1  0  0  0  0  0  0  0  0
   -5.3853    6.2958   -1.1038 H   0  0  0  1  0  0  0  0  0  0  0  0
   -5.8395    4.7050   -2.8765 H   0  0  0  1  0  0  0  0  0  0  0  0
   -3.0270    2.0089   -1.3020 H   0  0  0  1  0  0  0  0  0  0  0  0
  1  4  1  0  0  0  0
  2  4  1  0  0  0  0
  2  5  2  0  0  0  0
  2  6  1  0  0  0  0
  3  4  1  0  0  0  0
  3  7  1  0  0  0  0
  3  8  1  0  0  0  0
  4 19  1  0  0  0  0
  6  9  1  0  0  0  0
  6 12  1  0  0  0  0
  8 10  1  0  0  0  0
  8 11  2  0  0  0  0
  9 13  1  0  0  0  0
  9 14  1  0  0  0  0
  9 15  1  0  0  0  0
 10 16  1  0  0  0  0
 10 17  1  0  0  0  0
 10 18  1  0  0  0  0
 19 20  1  0  0  0  0
 19 30  1  0  0  0  0
 19 31  1  0  0  0  0
 20 21  4  0  0  0  0
 20 28  4  0  0  0  0
 21 22  4  0  0  0  0
 21 32  1  0  0  0  0
 22 23  4  0  0  0  0
 22 33  1  0  0  0  0
 23 24  4  0  0  0  0
 23 28  4  0  0  0  0
 24 25  4  0  0  0  0
 24 34  1  0  0  0  0
 25 26  4  0  0  0  0
 25 35  1  0  0  0  0
 26 27  4  0  0  0  0
 26 29  1  0  0  0  0
 27 28  4  0  0  0  0
 27 36  1  0  0  0  0
M  END
> <BCLConfClusterSize>
1

> <ConfClashScore>
0 

> <ConfOneFourInteractionScore>
-0.981931 

> <ConfScore>
0.57276 

> <ConfScorePBest>
0.0194513 

> <ConfTolerance>
1.04142 

> <RosettaParamsInstructions>
M  ROOT 3
M  POLY_N_BB 3
M  POLY_CA_BB 4
M  POLY_C_BB 2
M  POLY_O_BB 5
M  POLY_IGNORE 9 10 11 12 13 14 15 16 17 18 
M  POLY_UPPER 6
M  POLY_LOWER 8
M  POLY_CHG 0
M  POLY_PROPERTIES ALPHA_AA L_AA PROTEIN AROMATIC POLYMER 
M  END

$$$$



 36 37  0  0  0  0  0  0  0  0999 V2000
    0.5715    2.0029    0.9158 H   0  0  0  1  0  0  0  0  0  0  0  0
   -0.1761    2.9111   -0.8547 C   0  0  0  1  0  0  0  0  0  0  0  0
    0.6265    4.0647    1.1557 N   0  0  0  1  0  0  0  0  0  0  0  0
   -0.0193    2.8579    0.6611 C   0  0  0  1  0  0  0  0  0  0  0  0
   -0.1680    3.9820   -1.4603 O   0  0  0  1  0  0  0  0  0  0  0  0
   -0.3203    1.7313   -1.4650 N   0  0  0  1  0  0  0  0  0  0  0  0
    0.5844    4.8649    0.5914 H   0  0  0  1  0  0  0  0  0  0  0  0
    1.2713    4.1637    2.3192 C   0  0  0  1  0  0  0  0  0  0  0  0
   -0.4298    1.6125   -2.9113 C   0  0  0  1  0  0  0  0  0  0  0  0
    1.9432    5.4961    2.5886 C   0  0  0  1  0  0  0  0  0  0  0  0
    1.3280    3.2437    3.1340 O   0  0  0  1  0  0  0  0  0  0  0  0
   -0.3533    0.9177   -0.9198 H   0  0  0  1  0  0  0  0  0  0  0  0
   -0.9374    2.4694   -3.3026 H   0  0  0  1  0  0  0  0  0  0  0  0
   -0.9818    0.7290   -3.1555 H   0  0  0  1  0  0  0  0  0  0  0  0
    0.5490    1.5519   -3.3391 H   0  0  0  1  0  0  0  0  0  0  0  0
    1.2071    6.2137    2.8855 H   0  0  0  1  0  0  0  0  0  0  0  0
    2.4327    5.8346    1.6995 H   0  0  0  1  0  0  0  0  0  0  0  0
    2.6638    5.3800    3.3710 H   0  0  0  1  0  0  0  0  0  0  0  0
   -1.4036    2.7047    1.2989 C   0  0  0  1  0  0  0  0  0  0  0  0
   -2.3546    3.8068    0.9157 C   0  0  0  1  0  0  0  0  0  0  0  0
   -2.5493    4.9873    1.5702 C   0  0  0  1  0  0  0  0  0  0  0  0
   -3.5079    5.7309    0.9308 N   0  0  0  1  0  0  0  0  0  0  0  0
   -3.9412    5.0477   -0.1725 C   0  0  0  1  0  0  0  0  0  0  0  0
   -4.8894    5.3899   -1.1405 C   0  0  0  1  0  0  0  0  0  0  0  0
   -5.1295    4.4781   -2.1454 C   0  0  0  1  0  0  0  0  0  0  0  0
   -4.4599    3.2595   -2.1949 C   0  0  0  1  0  0  0  0  0  0  0  0
   -3.5208    2.9236   -1.2449 C   0  0  0  1  0  0  0  0  0  0  0  0
   -3.2429    3.8291   -0.2153 C   0  0  0  1  0  0  0  0  0  0  0  0
   -4.7346    2.3934   -3.1891 F   0  0  0  1  0  0  0  0  0  0  0  0
   -1.2905    2.7071    2.3629 H   0  0  0  1  0  0  0  0  0  0  0  0
   -1.8211    1.7705    0.9862 H   0  0  0  1  0  0  0  0  0  0  0  0
   -2.0437    5.2812    2.4302 H   0  0  0  1  0  0  0  0  0  0  0  0
   -3.8307    6.6105    1.2180 H   0  0  0  1  0  0  0  0  0  0  0  0
   -5.3947    6.2982   -1.1039 H   0  0  0  1  0  0  0  0  0  0  0  0
   -5.8266    4.7057   -2.8828 H   0  0  0  1  0  0  0  0  0  0  0  0
   -3.0256    2.0102   -1.2923 H   0  0  0  1  0  0  0  0  0  0  0  0
  1  4  1  0  0  0  0
  2  4  1  0  0  0  0
  2  5  2  0  0  0  0
  2  6  1  0  0  0  0
  3  4  1  0  0  0  0
  3  7  1  0  0  0  0
  3  8  1  0  0  0  0
  4 19  1  0  0  0  0
  6  9  1  0  0  0  0
  6 12  1  0  0  0  0
  8 10  1  0  0  0  0
  8 11  2  0  0  0  0
  9 13  1  0  0  0  0
  9 14  1  0  0  0  0
  9 15  1  0  0  0  0
 10 16  1  0  0  0  0
 10 17  1  0  0  0  0
 10 18  1  0  0  0  0
 19 20  1  0  0  0  0
 19 30  1  0  0  0  0
 19 31  1  0  0  0  0
 20 21  4  0  0  0  0
 20 28  4  0  0  0  0
 21 22  4  0  0  0  0
 21 32  1  0  0  0  0
 22 23  4  0  0  0  0
 22 33  1  0  0  0  0
 23 24  4  0  0  0  0
 23 28  4  0  0  0  0
 24 25  4  0  0  0  0
 24 34  1  0  0  0  0
 25 26  4  0  0  0  0
 25 35  1  0  0  0  0
 26 27  4  0  0  0  0
 26 29  1  0  0  0  0
 27 28  4  0  0  0  0
 27 36  1  0  0  0  0
M  END
> <BCLConfClusterSize>
1

> <ConfClashScore>
0 

> <ConfOneFourInteractionScore>
-0.987258 

> <ConfScore>
0.590162 

> <ConfScorePBest>
0.0190855 

> <ConfTolerance>
0.402897 

> <RosettaParamsInstructions>
M  ROOT 3
M  POLY_N_BB 3
M  POLY_CA_BB 4
M  POLY_C_BB 2
M  POLY_O_BB 5
M  POLY_IGNORE 9 10 11 12 13 14 15 16 17 18 
M  POLY_UPPER 6
M  POLY_LOWER 8
M  POLY_CHG 0
M  POLY_PROPERTIES ALPHA_AA L_AA PROTEIN AROMATIC POLYMER 
M  END

$$$$



 36 37  0  0  0  0  0  0  0  0999 V2000
   -1.3263    0.8968    2.3687 H   0  0  0  1  0  0  0  0  0  0  0  0
   -2.0594    2.3366    3.7103 C   0  0  0  1  0  0  0  0  0  0  0  0
   -3.2971    1.2186    1.9015 N   0  0  0  1  0  0  0  0  0  0  0  0
   -1.9971    1.7286    2.3135 C   0  0  0  1  0  0  0  0  0  0  0  0
   -3.0981    2.8321    4.1452 O   0  0  0  1  0  0  0  0  0  0  0  0
   -0.9189    2.2922    4.4170 N   0  0  0  1  0  0  0  0  0  0  0  0
   -4.0939    1.5894    2.3352 H   0  0  0  1  0  0  0  0  0  0  0  0
   -3.4745    0.2692    0.9622 C   0  0  0  1  0  0  0  0  0  0  0  0
   -0.7442    2.8438    5.7524 C   0  0  0  1  0  0  0  0  0  0  0  0
   -4.9234    0.0721    0.5609 C   0  0  0  1  0  0  0  0  0  0  0  0
   -2.5695   -0.3935    0.4568 O   0  0  0  1  0  0  0  0  0  0  0  0
   -0.1457    1.8554    4.0025 H   0  0  0  1  0  0  0  0  0  0  0  0
    0.2391    2.6156    6.1073 H   0  0  0  1  0  0  0  0  0  0  0  0
   -1.4696    2.4160    6.4124 H   0  0  0  1  0  0  0  0  0  0  0  0
   -0.8737    3.9055    5.7192 H   0  0  0  1  0  0  0  0  0  0  0  0
   -5.4936   -0.2251    1.4161 H   0  0  0  1  0  0  0  0  0  0  0  0
   -4.9850   -0.6876   -0.1901 H   0  0  0  1  0  0  0  0  0  0  0  0
   -5.3139    0.9898    0.1734 H   0  0  0  1  0  0  0  0  0  0  0  0
   -1.4040    2.7052    1.2987 C   0  0  0  1  0  0  0  0  0  0  0  0
   -2.3546    3.8068    0.9157 C   0  0  0  1  0  0  0  0  0  0  0  0
   -2.5492    4.9872    1.5702 C   0  0  0  1  0  0  0  0  0  0  0  0
   -3.5078    5.7308    0.9308 N   0  0  0  1  0  0  0  0  0  0  0  0
   -3.9411    5.0477   -0.1724 C   0  0  0  1  0  0  0  0  0  0  0  0
   -4.8894    5.3899   -1.1405 C   0  0  0  1  0  0  0  0  0  0  0  0
   -5.1295    4.4781   -2.1453 C   0  0  0  1  0  0  0  0  0  0  0  0
   -4.4598    3.2595   -2.1949 C   0  0  0  1  0  0  0  0  0  0  0  0
   -3.5207    2.9235   -1.2449 C   0  0  0  1  0  0  0  0  0  0  0  0
   -3.2429    3.8291   -0.2153 C   0  0  0  1  0  0  0  0  0  0  0  0
   -4.7346    2.3934   -3.1891 F   0  0  0  1  0  0  0  0  0  0  0  0
   -1.1402    2.1608    0.4161 H   0  0  0  1  0  0  0  0  0  0  0  0
   -0.5257    3.1454    1.7227 H   0  0  0  1  0  0  0  0  0  0  0  0
   -2.0436    5.2811    2.4302 H   0  0  0  1  0  0  0  0  0  0  0  0
   -3.8307    6.6104    1.2181 H   0  0  0  1  0  0  0  0  0  0  0  0
   -5.3946    6.2982   -1.1038 H   0  0  0  1  0  0  0  0  0  0  0  0
   -5.8266    4.7057   -2.8828 H   0  0  0  1  0  0  0  0  0  0  0  0
   -3.0255    2.0102   -1.2923 H   0  0  0  1  0  0  0  0  0  0  0  0
  1  4  1  0  0  0  0
  2  4  1  0  0  0  0
  2  5  2  0  0  0  0
  2  6  1  0  0  0  0
  3  4  1  0  0  0  0
  3  7  1  0  0  0  0
  3  8  1  0  0  0  0
  4 19  1  0  0  0  0
  6  9  1  0  0  0  0
  6 12  1  0  0  0  0
  8 10  1  0  0  0  0
  8 11  2  0  0  0  0
  9 13  1  0  0  0  0
  9 14  1  0  0  0  0
  9 15  1  0  0  0  0
 10 16  1  0  0  0  0
 10 17  1  0  0  0  0
 10 18  1  0  0  0  0
 19 20  1  0  0  0  0
 19 30  1  0  0  0  0
 19 31  1  0  0  0  0
 20 21  4  0  0  0  0
 20 28  4  0  0  0  0
 21 22  4  0  0  0  0
 21 32  1  0  0  0  0
 22 23  4  0  0  0  0
 22 33  1  0  0  0  0
 23 24  4  0  0  0  0
 23 28  4  0  0  0  0
 24 25  4  0  0  0  0
 24 34  1  0  0  0  0
 25 26  4  0  0  0  0
 25 35  1  0  0  0  0
 26 27  4  0  0  0  0
 26 29  1  0  0  0  0
 27 28  4  0  0  0  0
 27 36  1  0  0  0  0
M  END
> <BCLConfClusterSize>
1

> <ConfClashScore>
0 

> <ConfOneFourInteractionScore>
-0.982677 

> <ConfScore>
0.590551 

> <ConfScorePBest>
0.0187197 

> <ConfTolerance>
0.714541 

> <RosettaParamsInstructions>
M  ROOT 3
M  POLY_N_BB 3
M  POLY_CA_BB 4
M  POLY_C_BB 2
M  POLY_O_BB 5
M  POLY_IGNORE 9 10 11 12 13 14 15 16 17 18 
M  POLY_UPPER 6
M  POLY_LOWER 8
M  POLY_CHG 0
M  POLY_PROPERTIES ALPHA_AA L_AA PROTEIN AROMATIC POLYMER 
M  END

$$$$



 36 37  0  0  0  0  0  0  0  0999 V2000
   -2.7408    1.9819    2.7872 H   0  0  0  1  0  0  0  0  0  0  0  0
   -3.1101    0.8978    1.0080 C   0  0  0  1  0  0  0  0  0  0  0  0
   -1.1947    0.6279    2.5794 N   0  0  0  1  0  0  0  0  0  0  0  0
   -2.1551    1.5551    2.0000 C   0  0  0  1  0  0  0  0  0  0  0  0
   -2.7282    0.0101    0.2466 O   0  0  0  1  0  0  0  0  0  0  0  0
   -4.3675    1.3489    1.0269 N   0  0  0  1  0  0  0  0  0  0  0  0
   -0.2342    0.7776    2.4548 H   0  0  0  1  0  0  0  0  0  0  0  0
   -1.6196   -0.4269    3.2807 C   0  0  0  1  0  0  0  0  0  0  0  0
   -5.3643    0.9131    0.0603 C   0  0  0  1  0  0  0  0  0  0  0  0
   -0.5350   -1.2836    3.9043 C   0  0  0  1  0  0  0  0  0  0  0  0
   -2.8084   -0.7010    3.4221 O   0  0  0  1  0  0  0  0  0  0  0  0
   -4.6277    1.9956    1.7157 H   0  0  0  1  0  0  0  0  0  0  0  0
   -5.5048   -0.1443    0.1441 H   0  0  0  1  0  0  0  0  0  0  0  0
   -5.0303    1.1510   -0.9280 H   0  0  0  1  0  0  0  0  0  0  0  0
   -6.2908    1.4122    0.2541 H   0  0  0  1  0  0  0  0  0  0  0  0
   -0.1864   -0.8199    4.8034 H   0  0  0  1  0  0  0  0  0  0  0  0
    0.2787   -1.3846    3.2169 H   0  0  0  1  0  0  0  0  0  0  0  0
   -0.9318   -2.2506    4.1327 H   0  0  0  1  0  0  0  0  0  0  0  0
   -1.4074    2.6946    1.3007 C   0  0  0  1  0  0  0  0  0  0  0  0
   -2.3615    3.8069    0.9162 C   0  0  0  1  0  0  0  0  0  0  0  0
   -2.5406    4.9942    1.5800 C   0  0  0  1  0  0  0  0  0  0  0  0
   -3.5119    5.7436    0.9336 N   0  0  0  1  0  0  0  0  0  0  0  0
   -3.9486    5.0412   -0.1720 C   0  0  0  1  0  0  0  0  0  0  0  0
   -4.8874    5.3840   -1.1398 C   0  0  0  1  0  0  0  0  0  0  0  0
   -5.1358    4.4783   -2.1456 C   0  0  0  1  0  0  0  0  0  0  0  0
   -4.4555    3.2566   -2.1992 C   0  0  0  1  0  0  0  0  0  0  0  0
   -3.5241    2.9214   -1.2499 C   0  0  0  1  0  0  0  0  0  0  0  0
   -3.2475    3.8183   -0.2092 C   0  0  0  1  0  0  0  0  0  0  0  0
   -4.7198    2.3951   -3.2002 F   0  0  0  1  0  0  0  0  0  0  0  0
   -0.9366    2.3154    0.4178 H   0  0  0  1  0  0  0  0  0  0  0  0
   -0.6629    3.0843    1.9631 H   0  0  0  1  0  0  0  0  0  0  0  0
   -2.0273    5.2869    2.4358 H   0  0  0  1  0  0  0  0  0  0  0  0
   -3.8347    6.6251    1.2147 H   0  0  0  1  0  0  0  0  0  0  0  0
   -5.3858    6.2961   -1.1042 H   0  0  0  1  0  0  0  0  0  0  0  0
   -5.8398    4.7051   -2.8768 H   0  0  0  1  0  0  0  0  0  0  0  0
   -3.0272    2.0093   -1.3019 H   0  0  0  1  0  0  0  0  0  0  0  0
  1  4  1  0  0  0  0
  2  4  1  0  0  0  0
  2  5  2  0  0  0  0
  2  6  1  0  0  0  0
  3  4  1  0  0  0  0
  3  7  1  0  0  0  0
  3  8  1  0  0  0  0
  4 19  1  0  0  0  0
  6  9  1  0  0  0  0
  6 12  1  0  0  0  0
  8 10  1  0  0  0  0
  8 11  2  0  0  0  0
  9 13  1  0  0  0  0
  9 14  1  0  0  0  0
  9 15  1  0  0  0  0
 10 16  1  0  0  0  0
 10 17  1  0  0  0  0
 10 18  1  0  0  0  0
 19 20  1  0  0  0  0
 19 30  1  0  0  0  0
 19 31  1  0  0  0  0
 20 21  4  0  0  0  0
 20 28  4  0  0  0  0
 21 22  4  0  0  0  0
 21 32  1  0  0  0  0
 22 23  4  0  0  0  0
 22 33  1  0  0  0  0
 23 24  4  0  0  0  0
 23 28  4  0  0  0  0
 24 25  4  0  0  0  0
 24 34  1  0  0  0  0
 25 26  4  0  0  0  0
 25 35  1  0  0  0  0
 26 27  4  0  0  0  0
 26 29  1  0  0  0  0
 27 28  4  0  0  0  0
 27 36  1  0  0  0  0
M  END
> <BCLConfClusterSize>
1

> <ConfClashScore>
0 

> <ConfOneFourInteractionScore>
-0.978127 

> <ConfScore>
0.60243 

> <ConfScorePBest>
0.0183539 

> <ConfTolerance>
0.6558 

> <RosettaParamsInstructions>
M  ROOT 3
M  POLY_N_BB 3
M  POLY_CA_BB 4
M  POLY_C_BB 2
M  POLY_O_BB 5
M  POLY_IGNORE 9 10 11 12 13 14 15 16 17 18 
M  POLY_UPPER 6
M  POLY_LOWER 8
M  POLY_CHG 0
M  POLY_PROPERTIES ALPHA_AA L_AA PROTEIN AROMATIC POLYMER 
M  END

$$$$



 36 37  0  0  0  0  0  0  0  0999 V2000
    0.0182    3.7589    2.4654 H   0  0  0  1  0  0  0  0  0  0  0  0
    0.8746    1.9147    1.8553 C   0  0  0  1  0  0  0  0  0  0  0  0
    0.5475    3.9037    0.4630 N   0  0  0  1  0  0  0  0  0  0  0  0
    0.0219    3.1457    1.5886 C   0  0  0  1  0  0  0  0  0  0  0  0
    1.3894    1.2908    0.9282 O   0  0  0  1  0  0  0  0  0  0  0  0
    1.0470    1.5328    3.1239 N   0  0  0  1  0  0  0  0  0  0  0  0
    0.0584    3.8899   -0.3862 H   0  0  0  1  0  0  0  0  0  0  0  0
    1.6737    4.6176    0.5469 C   0  0  0  1  0  0  0  0  0  0  0  0
    1.8517    0.3752    3.4848 C   0  0  0  1  0  0  0  0  0  0  0  0
    2.0471    5.3883   -0.7173 C   0  0  0  1  0  0  0  0  0  0  0  0
    2.4083    4.6141    1.5209 O   0  0  0  1  0  0  0  0  0  0  0  0
    0.6166    2.0503    3.8362 H   0  0  0  1  0  0  0  0  0  0  0  0
    1.5656    0.0302    4.4564 H   0  0  0  1  0  0  0  0  0  0  0  0
    2.8860    0.6490    3.4941 H   0  0  0  1  0  0  0  0  0  0  0  0
    1.6951   -0.4048    2.7692 H   0  0  0  1  0  0  0  0  0  0  0  0
    1.2089    5.9682   -1.0428 H   0  0  0  1  0  0  0  0  0  0  0  0
    2.3234    4.6981   -1.4869 H   0  0  0  1  0  0  0  0  0  0  0  0
    2.8707    6.0386   -0.5081 H   0  0  0  1  0  0  0  0  0  0  0  0
   -1.4036    2.7047    1.2989 C   0  0  0  1  0  0  0  0  0  0  0  0
   -2.3546    3.8068    0.9157 C   0  0  0  1  0  0  0  0  0  0  0  0
   -2.5493    4.9873    1.5702 C   0  0  0  1  0  0  0  0  0  0  0  0
   -3.5079    5.7309    0.9308 N   0  0  0  1  0  0  0  0  0  0  0  0
   -3.9412    5.0477   -0.1725 C   0  0  0  1  0  0  0  0  0  0  0  0
   -4.8894    5.3899   -1.1405 C   0  0  0  1  0  0  0  0  0  0  0  0
   -5.1295    4.4781   -2.1454 C   0  0  0  1  0  0  0  0  0  0  0  0
   -4.4599    3.2595   -2.1949 C   0  0  0  1  0  0  0  0  0  0  0  0
   -3.5208    2.9236   -1.2449 C   0  0  0  1  0  0  0  0  0  0  0  0
   -3.2429    3.8291   -0.2153 C   0  0  0  1  0  0  0  0  0  0  0  0
   -4.7346    2.3934   -3.1891 F   0  0  0  1  0  0  0  0  0  0  0  0
   -1.7868    2.2286    2.1771 H   0  0  0  1  0  0  0  0  0  0  0  0
   -1.3739    1.9998    0.4945 H   0  0  0  1  0  0  0  0  0  0  0  0
   -2.0437    5.2812    2.4302 H   0  0  0  1  0  0  0  0  0  0  0  0
   -3.8307    6.6105    1.2180 H   0  0  0  1  0  0  0  0  0  0  0  0
   -5.3947    6.2982   -1.1039 H   0  0  0  1  0  0  0  0  0  0  0  0
   -5.8266    4.7057   -2.8828 H   0  0  0  1  0  0  0  0  0  0  0  0
   -3.0256    2.0102   -1.2923 H   0  0  0  1  0  0  0  0  0  0  0  0
  1  4  1  0  0  0  0
  2  4  1  0  0  0  0
  2  5  2  0  0  0  0
  2  6  1  0  0  0  0
  3  4  1  0  0  0  0
  3  7  1  0  0  0  0
  3  8  1  0  0  0  0
  4 19  1  0  0  0  0
  6  9  1  0  0  0  0
  6 12  1  0  0  0  0
  8 10  1  0  0  0  0
  8 11  2  0  0  0  0
  9 13  1  0  0  0  0
  9 14  1  0  0  0  0
  9 15  1  0  0  0  0
 10 16  1  0  0  0  0
 10 17  1  0  0  0  0
 10 18  1  0  0  0  0
 19 20  1  0  0  0  0
 19 30  1  0  0  0  0
 19 31  1  0  0  0  0
 20 21  4  0  0  0  0
 20 28  4  0  0  0  0
 21 22  4  0  0  0  0
 21 32  1  0  0  0  0
 22 23  4  0  0  0  0
 22 33  1  0  0  0  0
 23 24  4  0  0  0  0
 23 28  4  0  0  0  0
 24 25  4  0  0  0  0
 24 34  1  0  0  0  0
 25 26  4  0  0  0  0
 25 35  1  0  0  0  0
 26 27  4  0  0  0  0
 26 29  1  0  0  0  0
 27 28  4  0  0  0  0
 27 36  1  0  0  0  0
M  END
> <BCLConfClusterSize>
1

> <ConfClashScore>
0 

> <ConfOneFourInteractionScore>
-0.985807 

> <ConfScore>
0.604139 

> <ConfScorePBest>
0.0179881 

> <ConfTolerance>
0.880981 

> <RosettaParamsInstructions>
M  ROOT 3
M  POLY_N_BB 3
M  POLY_CA_BB 4
M  POLY_C_BB 2
M  POLY_O_BB 5
M  POLY_IGNORE 9 10 11 12 13 14 15 16 17 18 
M  POLY_UPPER 6
M  POLY_LOWER 8
M  POLY_CHG 0
M  POLY_PROPERTIES ALPHA_AA L_AA PROTEIN AROMATIC POLYMER 
M  END

$$$$



 36 37  0  0  0  0  0  0  0  0999 V2000
   -2.8429    1.2974    1.9241 H   0  0  0  1  0  0  0  0  0  0  0  0
   -0.9705    0.5688    2.5290 C   0  0  0  1  0  0  0  0  0  0  0  0
   -2.2891    2.4466    3.5347 N   0  0  0  1  0  0  0  0  0  0  0  0
   -1.9430    1.7143    2.3256 C   0  0  0  1  0  0  0  0  0  0  0  0
   -0.1804    0.5718    3.4720 O   0  0  0  1  0  0  0  0  0  0  0  0
   -0.9980   -0.4396    1.6563 N   0  0  0  1  0  0  0  0  0  0  0  0
   -2.3273    3.4252    3.5003 H   0  0  0  1  0  0  0  0  0  0  0  0
   -2.5650    1.8115    4.7266 C   0  0  0  1  0  0  0  0  0  0  0  0
   -0.1422   -1.6152    1.7144 C   0  0  0  1  0  0  0  0  0  0  0  0
   -2.7461    2.7045    5.9193 C   0  0  0  1  0  0  0  0  0  0  0  0
   -2.6483    0.5985    4.7664 O   0  0  0  1  0  0  0  0  0  0  0  0
   -1.6431   -0.3847    0.9206 H   0  0  0  1  0  0  0  0  0  0  0  0
   -0.6243   -2.3800    2.2867 H   0  0  0  1  0  0  0  0  0  0  0  0
    0.7876   -1.3568    2.1765 H   0  0  0  1  0  0  0  0  0  0  0  0
    0.0393   -1.9733    0.7225 H   0  0  0  1  0  0  0  0  0  0  0  0
   -2.8609    3.7171    5.5932 H   0  0  0  1  0  0  0  0  0  0  0  0
   -1.8880    2.6296    6.5541 H   0  0  0  1  0  0  0  0  0  0  0  0
   -3.6184    2.4033    6.4608 H   0  0  0  1  0  0  0  0  0  0  0  0
   -1.4132    2.7010    1.2981 C   0  0  0  1  0  0  0  0  0  0  0  0
   -2.3611    3.8063    0.9162 C   0  0  0  1  0  0  0  0  0  0  0  0
   -2.5401    4.9935    1.5801 C   0  0  0  1  0  0  0  0  0  0  0  0
   -3.5113    5.7430    0.9339 N   0  0  0  1  0  0  0  0  0  0  0  0
   -3.9481    5.0408   -0.1718 C   0  0  0  1  0  0  0  0  0  0  0  0
   -4.8869    5.3837   -1.1395 C   0  0  0  1  0  0  0  0  0  0  0  0
   -5.1355    4.4781   -2.1453 C   0  0  0  1  0  0  0  0  0  0  0  0
   -4.4552    3.2563   -2.1991 C   0  0  0  1  0  0  0  0  0  0  0  0
   -3.5238    2.9211   -1.2499 C   0  0  0  1  0  0  0  0  0  0  0  0
   -3.2472    3.8178   -0.2091 C   0  0  0  1  0  0  0  0  0  0  0  0
   -4.7197    2.3950   -3.2002 F   0  0  0  1  0  0  0  0  0  0  0  0
   -1.1688    2.1546    0.4111 H   0  0  0  1  0  0  0  0  0  0  0  0
   -0.5272    3.1491    1.6970 H   0  0  0  1  0  0  0  0  0  0  0  0
   -2.0267    5.2861    2.4359 H   0  0  0  1  0  0  0  0  0  0  0  0
   -3.8341    6.6245    1.2151 H   0  0  0  1  0  0  0  0  0  0  0  0
   -5.3853    6.2958   -1.1038 H   0  0  0  1  0  0  0  0  0  0  0  0
   -5.8395    4.7050   -2.8765 H   0  0  0  1  0  0  0  0  0  0  0  0
   -3.0270    2.0089   -1.3020 H   0  0  0  1  0  0  0  0  0  0  0  0
  1  4  1  0  0  0  0
  2  4  1  0  0  0  0
  2  5  2  0  0  0  0
  2  6  1  0  0  0  0
  3  4  1  0  0  0  0
  3  7  1  0  0  0  0
  3  8  1  0  0  0  0
  4 19  1  0  0  0  0
  6  9  1  0  0  0  0
  6 12  1  0  0  0  0
  8 10  1  0  0  0  0
  8 11  2  0  0  0  0
  9 13  1  0  0  0  0
  9 14  1  0  0  0  0
  9 15  1  0  0  0  0
 10 16  1  0  0  0  0
 10 17  1  0  0  0  0
 10 18  1  0  0  0  0
 19 20  1  0  0  0  0
 19 30  1  0  0  0  0
 19 31  1  0  0  0  0
 20 21  4  0  0  0  0
 20 28  4  0  0  0  0
 21 22  4  0  0  0  0
 21 32  1  0  0  0  0
 22 23  4  0  0  0  0
 22 33  1  0  0  0  0
 23 24  4  0  0  0  0
 23 28  4  0  0  0  0
 24 25  4  0  0  0  0
 24 34  1  0  0  0  0
 25 26  4  0  0  0  0
 25 35  1  0  0  0  0
 26 27  4  0  0  0  0
 26 29  1  0  0  0  0
 27 28  4  0  0  0  0
 27 36  1  0  0  0  0
M  END
> <BCLConfClusterSize>
1

> <ConfClashScore>
0 

> <ConfOneFourInteractionScore>
-0.981931 

> <ConfScore>
0.611366 

> <ConfScorePBest>
0.0176223 

> <ConfTolerance>
0.77214 

> <RosettaParamsInstructions>
M  ROOT 3
M  POLY_N_BB 3
M  POLY_CA_BB 4
M  POLY_C_BB 2
M  POLY_O_BB 5
M  POLY_IGNORE 9 10 11 12 13 14 15 16 17 18 
M  POLY_UPPER 6
M  POLY_LOWER 8
M  POLY_CHG 0
M  POLY_PROPERTIES ALPHA_AA L_AA PROTEIN AROMATIC POLYMER 
M  END

$$$$



 36 37  0  0  0  0  0  0  0  0999 V2000
   -0.3286    2.8829   -0.5344 H   0  0  0  1  0  0  0  0  0  0  0  0
    0.5128    4.2356    0.8732 C   0  0  0  1  0  0  0  0  0  0  0  0
    0.8222    1.8030    0.8151 N   0  0  0  1  0  0  0  0  0  0  0  0
   -0.0997    2.8871    0.5108 C   0  0  0  1  0  0  0  0  0  0  0  0
    1.2102    4.3906    1.8592 O   0  0  0  1  0  0  0  0  0  0  0  0
    0.2796    5.2863    0.0853 N   0  0  0  1  0  0  0  0  0  0  0  0
    0.5123    1.0622    1.3770 H   0  0  0  1  0  0  0  0  0  0  0  0
    2.0764    1.7824    0.3552 C   0  0  0  1  0  0  0  0  0  0  0  0
    0.7073    6.6521    0.3664 C   0  0  0  1  0  0  0  0  0  0  0  0
    2.9027    0.5281    0.6407 C   0  0  0  1  0  0  0  0  0  0  0  0
    2.5906    2.7511   -0.2014 O   0  0  0  1  0  0  0  0  0  0  0  0
   -0.2166    5.1287   -0.7450 H   0  0  0  1  0  0  0  0  0  0  0  0
    0.2371    7.3226   -0.3223 H   0  0  0  1  0  0  0  0  0  0  0  0
    1.7700    6.7214    0.2621 H   0  0  0  1  0  0  0  0  0  0  0  0
    0.4287    6.9144    1.3657 H   0  0  0  1  0  0  0  0  0  0  0  0
    2.8220    0.2755    1.6773 H   0  0  0  1  0  0  0  0  0  0  0  0
    3.9281    0.7138    0.3978 H   0  0  0  1  0  0  0  0  0  0  0  0
    2.5362   -0.2829    0.0466 H   0  0  0  1  0  0  0  0  0  0  0  0
   -1.4036    2.7047    1.2989 C   0  0  0  1  0  0  0  0  0  0  0  0
   -2.3546    3.8068    0.9157 C   0  0  0  1  0  0  0  0  0  0  0  0
   -2.5493    4.9873    1.5702 C   0  0  0  1  0  0  0  0  0  0  0  0
   -3.5079    5.7309    0.9308 N   0  0  0  1  0  0  0  0  0  0  0  0
   -3.9412    5.0477   -0.1725 C   0  0  0  1  0  0  0  0  0  0  0  0
   -4.8894    5.3899   -1.1405 C   0  0  0  1  0  0  0  0  0  0  0  0
   -5.1295    4.4781   -2.1454 C   0  0  0  1  0  0  0  0  0  0  0  0
   -4.4599    3.2595   -2.1949 C   0  0  0  1  0  0  0  0  0  0  0  0
   -3.5208    2.9236   -1.2449 C   0  0  0  1  0  0  0  0  0  0  0  0
   -3.2429    3.8291   -0.2153 C   0  0  0  1  0  0  0  0  0  0  0  0
   -4.7346    2.3934   -3.1891 F   0  0  0  1  0  0  0  0  0  0  0  0
   -1.2001    2.7530    2.3482 H   0  0  0  1  0  0  0  0  0  0  0  0
   -1.8377    1.7558    1.0625 H   0  0  0  1  0  0  0  0  0  0  0  0
   -2.0437    5.2812    2.4302 H   0  0  0  1  0  0  0  0  0  0  0  0
   -3.8307    6.6105    1.2180 H   0  0  0  1  0  0  0  0  0  0  0  0
   -5.3947    6.2982   -1.1039 H   0  0  0  1  0  0  0  0  0  0  0  0
   -5.8266    4.7057   -2.8828 H   0  0  0  1  0  0  0  0  0  0  0  0
   -3.0256    2.0102   -1.2923 H   0  0  0  1  0  0  0  0  0  0  0  0
  1  4  1  0  0  0  0
  2  4  1  0  0  0  0
  2  5  2  0  0  0  0
  2  6  1  0  0  0  0
  3  4  1  0  0  0  0
  3  7  1  0  0  0  0
  3  8  1  0  0  0  0
  4 19  1  0  0  0  0
  6  9  1  0  0  0  0
  6 12  1  0  0  0  0
  8 10  1  0  0  0  0
  8 11  2  0  0  0  0
  9 13  1  0  0  0  0
  9 14  1  0  0  0  0
  9 15  1  0  0  0  0
 10 16  1  0  0  0  0
 10 17  1  0  0  0  0
 10 18  1  0  0  0  0
 19 20  1  0  0  0  0
 19 30  1  0  0  0  0
 19 31  1  0  0  0  0
 20 21  4  0  0  0  0
 20 28  4  0  0  0  0
 21 22  4  0  0  0  0
 21 32  1  0  0  0  0
 22 23  4  0  0  0  0
 22 33  1  0  0  0  0
 23 24  4  0  0  0  0
 23 28  4  0  0  0  0
 24 25  4  0  0  0  0
 24 34  1  0  0  0  0
 25 26  4  0  0  0  0
 25 35  1  0  0  0  0
 26 27  4  0  0  0  0
 26 29  1  0  0  0  0
 27 28  4  0  0  0  0
 27 36  1  0  0  0  0
M  END
> <BCLConfClusterSize>
1

> <ConfClashScore>
0 

> <ConfOneFourInteractionScore>
-0.985807 

> <ConfScore>
0.615213 

> <ConfScorePBest>
0.0172565 

> <ConfTolerance>
0.77409 

> <RosettaParamsInstructions>
M  ROOT 3
M  POLY_N_BB 3
M  POLY_CA_BB 4
M  POLY_C_BB 2
M  POLY_O_BB 5
M  POLY_IGNORE 9 10 11 12 13 14 15 16 17 18 
M  POLY_UPPER 6
M  POLY_LOWER 8
M  POLY_CHG 0
M  POLY_PROPERTIES ALPHA_AA L_AA PROTEIN AROMATIC POLYMER 
M  END

$$$$



 36 37  0  0  0  0  0  0  0  0999 V2000
   -1.5843    2.9794    3.3831 H   0  0  0  1  0  0  0  0  0  0  0  0
    0.0568    1.7040    3.0762 C   0  0  0  1  0  0  0  0  0  0  0  0
   -0.0320    4.1473    2.7056 N   0  0  0  1  0  0  0  0  0  0  0  0
   -0.7837    2.9015    2.6776 C   0  0  0  1  0  0  0  0  0  0  0  0
    1.2528    1.6540    2.8380 O   0  0  0  1  0  0  0  0  0  0  0  0
   -0.6393    0.7395    3.6986 N   0  0  0  1  0  0  0  0  0  0  0  0
    0.2583    4.5437    1.8577 H   0  0  0  1  0  0  0  0  0  0  0  0
    0.2774    4.7720    3.8520 C   0  0  0  1  0  0  0  0  0  0  0  0
   -0.0102   -0.4739    4.1985 C   0  0  0  1  0  0  0  0  0  0  0  0
    1.2287    5.9461    3.7264 C   0  0  0  1  0  0  0  0  0  0  0  0
   -0.1721    4.4285    4.9445 O   0  0  0  1  0  0  0  0  0  0  0  0
   -1.6046    0.8565    3.8205 H   0  0  0  1  0  0  0  0  0  0  0  0
   -0.5211   -0.8045    5.0786 H   0  0  0  1  0  0  0  0  0  0  0  0
    1.0138   -0.2730    4.4350 H   0  0  0  1  0  0  0  0  0  0  0  0
   -0.0608   -1.2362    3.4494 H   0  0  0  1  0  0  0  0  0  0  0  0
    0.7617    6.7252    3.1608 H   0  0  0  1  0  0  0  0  0  0  0  0
    2.1213    5.6299    3.2282 H   0  0  0  1  0  0  0  0  0  0  0  0
    1.4743    6.3117    4.7015 H   0  0  0  1  0  0  0  0  0  0  0  0
   -1.4132    2.7010    1.2981 C   0  0  0  1  0  0  0  0  0  0  0  0
   -2.3611    3.8063    0.9162 C   0  0  0  1  0  0  0  0  0  0  0  0
   -2.5401    4.9935    1.5801 C   0  0  0  1  0  0  0  0  0  0  0  0
   -3.5113    5.7430    0.9339 N   0  0  0  1  0  0  0  0  0  0  0  0
   -3.9481    5.0408   -0.1718 C   0  0  0  1  0  0  0  0  0  0  0  0
   -4.8869    5.3837   -1.1395 C   0  0  0  1  0  0  0  0  0  0  0  0
   -5.1355    4.4781   -2.1453 C   0  0  0  1  0  0  0  0  0  0  0  0
   -4.4552    3.2563   -2.1991 C   0  0  0  1  0  0  0  0  0  0  0  0
   -3.5238    2.9211   -1.2499 C   0  0  0  1  0  0  0  0  0  0  0  0
   -3.2472    3.8178   -0.2091 C   0  0  0  1  0  0  0  0  0  0  0  0
   -4.7197    2.3950   -3.2002 F   0  0  0  1  0  0  0  0  0  0  0  0
   -1.9515    1.7763    1.3005 H   0  0  0  1  0  0  0  0  0  0  0  0
   -0.6305    2.6568    0.5697 H   0  0  0  1  0  0  0  0  0  0  0  0
   -2.0267    5.2861    2.4359 H   0  0  0  1  0  0  0  0  0  0  0  0
   -3.8341    6.6245    1.2151 H   0  0  0  1  0  0  0  0  0  0  0  0
   -5.3853    6.2958   -1.1038 H   0  0  0  1  0  0  0  0  0  0  0  0
   -5.8395    4.7050   -2.8765 H   0  0  0  1  0  0  0  0  0  0  0  0
   -3.0270    2.0089   -1.3020 H   0  0  0  1  0  0  0  0  0  0  0  0
  1  4  1  0  0  0  0
  2  4  1  0  0  0  0
  2  5  2  0  0  0  0
  2  6  1  0  0  0  0
  3  4  1  0  0  0  0
  3  7  1  0  0  0  0
  3  8  1  0  0  0  0
  4 19  1  0  0  0  0
  6  9  1  0  0  0  0
  6 12  1  0  0  0  0
  8 10  1  0  0  0  0
  8 11  2  0  0  0  0
  9 13  1  0  0  0  0
  9 14  1  0  0  0  0
  9 15  1  0  0  0  0
 10 16  1  0  0  0  0
 10 17  1  0  0  0  0
 10 18  1  0  0  0  0
 19 20  1  0  0  0  0
 19 30  1  0  0  0  0
 19 31  1  0  0  0  0
 20 21  4  0  0  0  0
 20 28  4  0  0  0  0
 21 22  4  0  0  0  0
 21 32  1  0  0  0  0
 22 23  4  0  0  0  0
 22 33  1  0  0  0  0
 23 24  4  0  0  0  0
 23 28  4  0  0  0  0
 24 25  4  0  0  0  0
 24 34  1  0  0  0  0
 25 26  4  0  0  0  0
 25 35  1  0  0  0  0
 26 27  4  0  0  0  0
 26 29  1  0  0  0  0
 27 28  4  0  0  0  0
 27 36  1  0  0  0  0
M  END
> <BCLConfClusterSize>
1

> <ConfClashScore>
0 

> <ConfOneFourInteractionScore>
-0.97449 

> <ConfScore>
0.618 

> <ConfScorePBest>
0.0168907 

> <ConfTolerance>
1.0302 

> <RosettaParamsInstructions>
M  ROOT 3
M  POLY_N_BB 3
M  POLY_CA_BB 4
M  POLY_C_BB 2
M  POLY_O_BB 5
M  POLY_IGNORE 9 10 11 12 13 14 15 16 17 18 
M  POLY_UPPER 6
M  POLY_LOWER 8
M  POLY_CHG 0
M  POLY_PROPERTIES ALPHA_AA L_AA PROTEIN AROMATIC POLYMER 
M  END

$$$$



 36 37  0  0  0  0  0  0  0  0999 V2000
   -2.8584    1.2919    1.9237 H   0  0  0  1  0  0  0  0  0  0  0  0
   -1.0503    0.7330    2.8284 C   0  0  0  1  0  0  0  0  0  0  0  0
   -2.5281    2.6027    3.4745 N   0  0  0  1  0  0  0  0  0  0  0  0
   -2.0271    1.7935    2.3735 C   0  0  0  1  0  0  0  0  0  0  0  0
   -0.6794   -0.1541    2.0610 O   0  0  0  1  0  0  0  0  0  0  0  0
   -0.5990    0.7894    4.0987 N   0  0  0  1  0  0  0  0  0  0  0  0
   -1.8970    3.1570    3.9793 H   0  0  0  1  0  0  0  0  0  0  0  0
   -3.8183    2.6160    3.8210 C   0  0  0  1  0  0  0  0  0  0  0  0
    0.3403   -0.2099    4.5854 C   0  0  0  1  0  0  0  0  0  0  0  0
   -4.1716    3.4854    5.0120 C   0  0  0  1  0  0  0  0  0  0  0  0
   -4.6790    1.9707    3.2240 O   0  0  0  1  0  0  0  0  0  0  0  0
   -0.9045    1.5047    4.6948 H   0  0  0  1  0  0  0  0  0  0  0  0
    1.2927   -0.0611    4.1208 H   0  0  0  1  0  0  0  0  0  0  0  0
   -0.0238   -1.1874    4.3469 H   0  0  0  1  0  0  0  0  0  0  0  0
    0.4428   -0.1159    5.6463 H   0  0  0  1  0  0  0  0  0  0  0  0
   -3.4906    4.3088    5.0677 H   0  0  0  1  0  0  0  0  0  0  0  0
   -4.1040    2.9058    5.9089 H   0  0  0  1  0  0  0  0  0  0  0  0
   -5.1694    3.8551    4.9000 H   0  0  0  1  0  0  0  0  0  0  0  0
   -1.4072    2.6944    1.3008 C   0  0  0  1  0  0  0  0  0  0  0  0
   -2.3615    3.8070    0.9162 C   0  0  0  1  0  0  0  0  0  0  0  0
   -2.5407    4.9942    1.5800 C   0  0  0  1  0  0  0  0  0  0  0  0
   -3.5119    5.7436    0.9336 N   0  0  0  1  0  0  0  0  0  0  0  0
   -3.9486    5.0413   -0.1721 C   0  0  0  1  0  0  0  0  0  0  0  0
   -4.8874    5.3840   -1.1398 C   0  0  0  1  0  0  0  0  0  0  0  0
   -5.1358    4.4783   -2.1456 C   0  0  0  1  0  0  0  0  0  0  0  0
   -4.4555    3.2566   -2.1992 C   0  0  0  1  0  0  0  0  0  0  0  0
   -3.5241    2.9215   -1.2499 C   0  0  0  1  0  0  0  0  0  0  0  0
   -3.2475    3.8184   -0.2092 C   0  0  0  1  0  0  0  0  0  0  0  0
   -4.7198    2.3951   -3.2002 F   0  0  0  1  0  0  0  0  0  0  0  0
   -1.1859    2.1069    0.4343 H   0  0  0  1  0  0  0  0  0  0  0  0
   -0.5039    3.1231    1.6818 H   0  0  0  1  0  0  0  0  0  0  0  0
   -2.0273    5.2870    2.4358 H   0  0  0  1  0  0  0  0  0  0  0  0
   -3.8347    6.6251    1.2147 H   0  0  0  1  0  0  0  0  0  0  0  0
   -5.3858    6.2961   -1.1042 H   0  0  0  1  0  0  0  0  0  0  0  0
   -5.8398    4.7051   -2.8768 H   0  0  0  1  0  0  0  0  0  0  0  0
   -3.0272    2.0093   -1.3019 H   0  0  0  1  0  0  0  0  0  0  0  0
  1  4  1  0  0  0  0
  2  4  1  0  0  0  0
  2  5  2  0  0  0  0
  2  6  1  0  0  0  0
  3  4  1  0  0  0  0
  3  7  1  0  0  0  0
  3  8  1  0  0  0  0
  4 19  1  0  0  0  0
  6  9  1  0  0  0  0
  6 12  1  0  0  0  0
  8 10  1  0  0  0  0
  8 11  2  0  0  0  0
  9 13  1  0  0  0  0
  9 14  1  0  0  0  0
  9 15  1  0  0  0  0
 10 16  1  0  0  0  0
 10 17  1  0  0  0  0
 10 18  1  0  0  0  0
 19 20  1  0  0  0  0
 19 30  1  0  0  0  0
 19 31  1  0  0  0  0
 20 21  4  0  0  0  0
 20 28  4  0  0  0  0
 21 22  4  0  0  0  0
 21 32  1  0  0  0  0
 22 23  4  0  0  0  0
 22 33  1  0  0  0  0
 23 24  4  0  0  0  0
 23 28  4  0  0  0  0
 24 25  4  0  0  0  0
 24 34  1  0  0  0  0
 25 26  4  0  0  0  0
 25 35  1  0  0  0  0
 26 27  4  0  0  0  0
 26 29  1  0  0  0  0
 27 28  4  0  0  0  0
 27 36  1  0  0  0  0
M  END
> <BCLConfClusterSize>
1

> <ConfClashScore>
0 

> <ConfOneFourInteractionScore>
-0.94165 

> <ConfScore>
0.620962 

> <ConfScorePBest>
0.0165249 

> <ConfTolerance>
0.920491 

> <RosettaParamsInstructions>
M  ROOT 3
M  POLY_N_BB 3
M  POLY_CA_BB 4
M  POLY_C_BB 2
M  POLY_O_BB 5
M  POLY_IGNORE 9 10 11 12 13 14 15 16 17 18 
M  POLY_UPPER 6
M  POLY_LOWER 8
M  POLY_CHG 0
M  POLY_PROPERTIES ALPHA_AA L_AA PROTEIN AROMATIC POLYMER 
M  END

$$$$



 36 37  0  0  0  0  0  0  0  0999 V2000
    0.5776    2.0374    1.1401 H   0  0  0  1  0  0  0  0  0  0  0  0
    0.2698    3.3251   -0.4945 C   0  0  0  1  0  0  0  0  0  0  0  0
    0.6157    3.9874    1.8032 N   0  0  0  1  0  0  0  0  0  0  0  0
    0.0473    2.9485    0.9573 C   0  0  0  1  0  0  0  0  0  0  0  0
    0.4501    4.4833   -0.8346 O   0  0  0  1  0  0  0  0  0  0  0  0
    0.2470    2.2839   -1.3280 N   0  0  0  1  0  0  0  0  0  0  0  0
   -0.0013    4.5052    2.3614 H   0  0  0  1  0  0  0  0  0  0  0  0
    1.9154    4.2884    1.8760 C   0  0  0  1  0  0  0  0  0  0  0  0
    0.3061    2.3769   -2.7791 C   0  0  0  1  0  0  0  0  0  0  0  0
    2.2592    5.5367    2.6651 C   0  0  0  1  0  0  0  0  0  0  0  0
    2.7841    3.6140    1.3479 O   0  0  0  1  0  0  0  0  0  0  0  0
    0.1859    1.3889   -0.9335 H   0  0  0  1  0  0  0  0  0  0  0  0
    0.7750    3.2970   -3.0593 H   0  0  0  1  0  0  0  0  0  0  0  0
   -0.6859    2.3462   -3.1789 H   0  0  0  1  0  0  0  0  0  0  0  0
    0.8728    1.5559   -3.1661 H   0  0  0  1  0  0  0  0  0  0  0  0
    1.7165    6.3699    2.2699 H   0  0  0  1  0  0  0  0  0  0  0  0
    3.3093    5.7276    2.5904 H   0  0  0  1  0  0  0  0  0  0  0  0
    1.9943    5.3935    3.6919 H   0  0  0  1  0  0  0  0  0  0  0  0
   -1.4132    2.7010    1.2981 C   0  0  0  1  0  0  0  0  0  0  0  0
   -2.3611    3.8063    0.9162 C   0  0  0  1  0  0  0  0  0  0  0  0
   -2.5401    4.9935    1.5801 C   0  0  0  1  0  0  0  0  0  0  0  0
   -3.5113    5.7430    0.9339 N   0  0  0  1  0  0  0  0  0  0  0  0
   -3.9481    5.0408   -0.1718 C   0  0  0  1  0  0  0  0  0  0  0  0
   -4.8869    5.3837   -1.1395 C   0  0  0  1  0  0  0  0  0  0  0  0
   -5.1355    4.4781   -2.1453 C   0  0  0  1  0  0  0  0  0  0  0  0
   -4.4552    3.2563   -2.1991 C   0  0  0  1  0  0  0  0  0  0  0  0
   -3.5238    2.9211   -1.2499 C   0  0  0  1  0  0  0  0  0  0  0  0
   -3.2472    3.8178   -0.2091 C   0  0  0  1  0  0  0  0  0  0  0  0
   -4.7197    2.3950   -3.2002 F   0  0  0  1  0  0  0  0  0  0  0  0
   -1.4852    2.5550    2.3556 H   0  0  0  1  0  0  0  0  0  0  0  0
   -1.7237    1.8105    0.7926 H   0  0  0  1  0  0  0  0  0  0  0  0
   -2.0267    5.2861    2.4359 H   0  0  0  1  0  0  0  0  0  0  0  0
   -3.8341    6.6245    1.2151 H   0  0  0  1  0  0  0  0  0  0  0  0
   -5.3853    6.2958   -1.1038 H   0  0  0  1  0  0  0  0  0  0  0  0
   -5.8395    4.7050   -2.8765 H   0  0  0  1  0  0  0  0  0  0  0  0
   -3.0270    2.0089   -1.3020 H   0  0  0  1  0  0  0  0  0  0  0  0
  1  4  1  0  0  0  0
  2  4  1  0  0  0  0
  2  5  2  0  0  0  0
  2  6  1  0  0  0  0
  3  4  1  0  0  0  0
  3  7  1  0  0  0  0
  3  8  1  0  0  0  0
  4 19  1  0  0  0  0
  6  9  1  0  0  0  0
  6 12  1  0  0  0  0
  8 10  1  0  0  0  0
  8 11  2  0  0  0  0
  9 13  1  0  0  0  0
  9 14  1  0  0  0  0
  9 15  1  0  0  0  0
 10 16  1  0  0  0  0
 10 17  1  0  0  0  0
 10 18  1  0  0  0  0
 19 20  1  0  0  0  0
 19 30  1  0  0  0  0
 19 31  1  0  0  0  0
 20 21  4  0  0  0  0
 20 28  4  0  0  0  0
 21 22  4  0  0  0  0
 21 32  1  0  0  0  0
 22 23  4  0  0  0  0
 22 33  1  0  0  0  0
 23 24  4  0  0  0  0
 23 28  4  0  0  0  0
 24 25  4  0  0  0  0
 24 34  1  0  0  0  0
 25 26  4  0  0  0  0
 25 35  1  0  0  0  0
 26 27  4  0  0  0  0
 26 29  1  0  0  0  0
 27 28  4  0  0  0  0
 27 36  1  0  0  0  0
M  END
> <BCLConfClusterSize>
1

> <ConfClashScore>
0 

> <ConfOneFourInteractionScore>
-0.982563 

> <ConfScore>
0.622483 

> <ConfScorePBest>
0.0161591 

> <ConfTolerance>
0.656044 

> <RosettaParamsInstructions>
M  ROOT 3
M  POLY_N_BB 3
M  POLY_CA_BB 4
M  POLY_C_BB 2
M  POLY_O_BB 5
M  POLY_IGNORE 9 10 11 12 13 14 15 16 17 18 
M  POLY_UPPER 6
M  POLY_LOWER 8
M  POLY_CHG 0
M  POLY_PROPERTIES ALPHA_AA L_AA PROTEIN AROMATIC POLYMER 
M  END

$$$$



 36 37  0  0  0  0  0  0  0  0999 V2000
   -2.9713    1.3301    1.6128 H   0  0  0  1  0  0  0  0  0  0  0  0
   -1.2711    0.3287    2.2945 C   0  0  0  1  0  0  0  0  0  0  0  0
   -2.4957    2.1357    3.4483 N   0  0  0  1  0  0  0  0  0  0  0  0
   -2.0776    1.6027    2.1343 C   0  0  0  1  0  0  0  0  0  0  0  0
   -0.5904    0.1260    3.2991 O   0  0  0  1  0  0  0  0  0  0  0  0
   -1.3528   -0.5410    1.2835 N   0  0  0  1  0  0  0  0  0  0  0  0
   -1.8644    2.0971    4.1970 H   0  0  0  1  0  0  0  0  0  0  0  0
   -3.7041    2.6684    3.6507 C   0  0  0  1  0  0  0  0  0  0  0  0
   -0.5472   -1.7519    1.2327 C   0  0  0  1  0  0  0  0  0  0  0  0
   -4.0387    2.9790    5.1079 C   0  0  0  1  0  0  0  0  0  0  0  0
   -4.5349    2.8371    2.7603 O   0  0  0  1  0  0  0  0  0  0  0  0
   -1.9769   -0.3570    0.5507 H   0  0  0  1  0  0  0  0  0  0  0  0
    0.4891   -1.4945    1.3018 H   0  0  0  1  0  0  0  0  0  0  0  0
   -0.7271   -2.2612    0.3091 H   0  0  0  1  0  0  0  0  0  0  0  0
   -0.8111   -2.3901    2.0499 H   0  0  0  1  0  0  0  0  0  0  0  0
   -3.1459    3.2572    5.6279 H   0  0  0  1  0  0  0  0  0  0  0  0
   -4.4640    2.1119    5.5686 H   0  0  0  1  0  0  0  0  0  0  0  0
   -4.7407    3.7855    5.1483 H   0  0  0  1  0  0  0  0  0  0  0  0
   -1.4132    2.7010    1.2981 C   0  0  0  1  0  0  0  0  0  0  0  0
   -2.3611    3.8063    0.9162 C   0  0  0  1  0  0  0  0  0  0  0  0
   -2.5401    4.9935    1.5801 C   0  0  0  1  0  0  0  0  0  0  0  0
   -3.5113    5.7430    0.9339 N   0  0  0  1  0  0  0  0  0  0  0  0
   -3.9481    5.0408   -0.1718 C   0  0  0  1  0  0  0  0  0  0  0  0
   -4.8869    5.3837   -1.1395 C   0  0  0  1  0  0  0  0  0  0  0  0
   -5.1355    4.4781   -2.1453 C   0  0  0  1  0  0  0  0  0  0  0  0
   -4.4552    3.2563   -2.1991 C   0  0  0  1  0  0  0  0  0  0  0  0
   -3.5238    2.9211   -1.2499 C   0  0  0  1  0  0  0  0  0  0  0  0
   -3.2472    3.8178   -0.2091 C   0  0  0  1  0  0  0  0  0  0  0  0
   -4.7197    2.3950   -3.2002 F   0  0  0  1  0  0  0  0  0  0  0  0
   -1.0257    2.2604    0.4033 H   0  0  0  1  0  0  0  0  0  0  0  0
   -0.6098    3.1222    1.8657 H   0  0  0  1  0  0  0  0  0  0  0  0
   -2.0267    5.2861    2.4359 H   0  0  0  1  0  0  0  0  0  0  0  0
   -3.8341    6.6245    1.2151 H   0  0  0  1  0  0  0  0  0  0  0  0
   -5.3853    6.2958   -1.1038 H   0  0  0  1  0  0  0  0  0  0  0  0
   -5.8395    4.7050   -2.8765 H   0  0  0  1  0  0  0  0  0  0  0  0
   -3.0270    2.0089   -1.3020 H   0  0  0  1  0  0  0  0  0  0  0  0
  1  4  1  0  0  0  0
  2  4  1  0  0  0  0
  2  5  2  0  0  0  0
  2  6  1  0  0  0  0
  3  4  1  0  0  0  0
  3  7  1  0  0  0  0
  3  8  1  0  0  0  0
  4 19  1  0  0  0  0
  6  9  1  0  0  0  0
  6 12  1  0  0  0  0
  8 10  1  0  0  0  0
  8 11  2  0  0  0  0
  9 13  1  0  0  0  0
  9 14  1  0  0  0  0
  9 15  1  0  0  0  0
 10 16  1  0  0  0  0
 10 17  1  0  0  0  0
 10 18  1  0  0  0  0
 19 20  1  0  0  0  0
 19 30  1  0  0  0  0
 19 31  1  0  0  0  0
 20 21  4  0  0  0  0
 20 28  4  0  0  0  0
 21 22  4  0  0  0  0
 21 32  1  0  0  0  0
 22 23  4  0  0  0  0
 22 33  1  0  0  0  0
 23 24  4  0  0  0  0
 23 28  4  0  0  0  0
 24 25  4  0  0  0  0
 24 34  1  0  0  0  0
 25 26  4  0  0  0  0
 25 35  1  0  0  0  0
 26 27  4  0  0  0  0
 26 29  1  0  0  0  0
 27 28  4  0  0  0  0
 27 36  1  0  0  0  0
M  END
> <BCLConfClusterSize>
1

> <ConfClashScore>
0 

> <ConfOneFourInteractionScore>
-0.986627 

> <ConfScore>
0.632409 

> <ConfScorePBest>
0.0157933 

> <ConfTolerance>
1.10193 

> <RosettaParamsInstructions>
M  ROOT 3
M  POLY_N_BB 3
M  POLY_CA_BB 4
M  POLY_C_BB 2
M  POLY_O_BB 5
M  POLY_IGNORE 9 10 11 12 13 14 15 16 17 18 
M  POLY_UPPER 6
M  POLY_LOWER 8
M  POLY_CHG 0
M  POLY_PROPERTIES ALPHA_AA L_AA PROTEIN AROMATIC POLYMER 
M  END

$$$$



 36 37  0  0  0  0  0  0  0  0999 V2000
    0.0633    3.9457    2.1700 H   0  0  0  1  0  0  0  0  0  0  0  0
   -1.2323    3.2862    3.7038 C   0  0  0  1  0  0  0  0  0  0  0  0
    0.5438    1.9740    2.5549 N   0  0  0  1  0  0  0  0  0  0  0  0
   -0.4411    3.0377    2.4271 C   0  0  0  1  0  0  0  0  0  0  0  0
   -1.9051    2.3911    4.2135 O   0  0  0  1  0  0  0  0  0  0  0  0
   -1.1732    4.5150    4.2577 N   0  0  0  1  0  0  0  0  0  0  0  0
    0.2219    1.0885    2.8248 H   0  0  0  1  0  0  0  0  0  0  0  0
    1.8537    2.1135    2.3319 C   0  0  0  1  0  0  0  0  0  0  0  0
   -1.8749    4.7356    5.5134 C   0  0  0  1  0  0  0  0  0  0  0  0
    2.6960    0.8730    2.5573 C   0  0  0  1  0  0  0  0  0  0  0  0
    2.3619    3.1728    1.9668 O   0  0  0  1  0  0  0  0  0  0  0  0
   -0.6719    5.2384    3.8267 H   0  0  0  1  0  0  0  0  0  0  0  0
   -1.9155    3.8200    6.0655 H   0  0  0  1  0  0  0  0  0  0  0  0
   -2.8695    5.0742    5.3111 H   0  0  0  1  0  0  0  0  0  0  0  0
   -1.3556    5.4748    6.0868 H   0  0  0  1  0  0  0  0  0  0  0  0
    2.0558    0.0283    2.7038 H   0  0  0  1  0  0  0  0  0  0  0  0
    3.3085    1.0107    3.4238 H   0  0  0  1  0  0  0  0  0  0  0  0
    3.3183    0.7048    1.7032 H   0  0  0  1  0  0  0  0  0  0  0  0
   -1.4036    2.7047    1.2989 C   0  0  0  1  0  0  0  0  0  0  0  0
   -2.3546    3.8068    0.9157 C   0  0  0  1  0  0  0  0  0  0  0  0
   -2.5493    4.9873    1.5702 C   0  0  0  1  0  0  0  0  0  0  0  0
   -3.5079    5.7309    0.9308 N   0  0  0  1  0  0  0  0  0  0  0  0
   -3.9412    5.0477   -0.1725 C   0  0  0  1  0  0  0  0  0  0  0  0
   -4.8894    5.3899   -1.1405 C   0  0  0  1  0  0  0  0  0  0  0  0
   -5.1295    4.4781   -2.1454 C   0  0  0  1  0  0  0  0  0  0  0  0
   -4.4599    3.2595   -2.1949 C   0  0  0  1  0  0  0  0  0  0  0  0
   -3.5208    2.9236   -1.2449 C   0  0  0  1  0  0  0  0  0  0  0  0
   -3.2429    3.8291   -0.2153 C   0  0  0  1  0  0  0  0  0  0  0  0
   -4.7346    2.3934   -3.1891 F   0  0  0  1  0  0  0  0  0  0  0  0
   -1.9840    1.8575    1.5994 H   0  0  0  1  0  0  0  0  0  0  0  0
   -0.8248    2.4529    0.4348 H   0  0  0  1  0  0  0  0  0  0  0  0
   -2.0437    5.2812    2.4302 H   0  0  0  1  0  0  0  0  0  0  0  0
   -3.8307    6.6105    1.2180 H   0  0  0  1  0  0  0  0  0  0  0  0
   -5.3947    6.2982   -1.1039 H   0  0  0  1  0  0  0  0  0  0  0  0
   -5.8266    4.7057   -2.8828 H   0  0  0  1  0  0  0  0  0  0  0  0
   -3.0256    2.0102   -1.2923 H   0  0  0  1  0  0  0  0  0  0  0  0
  1  4  1  0  0  0  0
  2  4  1  0  0  0  0
  2  5  2  0  0  0  0
  2  6  1  0  0  0  0
  3  4  1  0  0  0  0
  3  7  1  0  0  0  0
  3  8  1  0  0  0  0
  4 19  1  0  0  0  0
  6  9  1  0  0  0  0
  6 12  1  0  0  0  0
  8 10  1  0  0  0  0
  8 11  2  0  0  0  0
  9 13  1  0  0  0  0
  9 14  1  0  0  0  0
  9 15  1  0  0  0  0
 10 16  1  0  0  0  0
 10 17  1  0  0  0  0
 10 18  1  0  0  0  0
 19 20  1  0  0  0  0
 19 30  1  0  0  0  0
 19 31  1  0  0  0  0
 20 21  4  0  0  0  0
 20 28  4  0  0  0  0
 21 22  4  0  0  0  0
 21 32  1  0  0  0  0
 22 23  4  0  0  0  0
 22 33  1  0  0  0  0
 23 24  4  0  0  0  0
 23 28  4  0  0  0  0
 24 25  4  0  0  0  0
 24 34  1  0  0  0  0
 25 26  4  0  0  0  0
 25 35  1  0  0  0  0
 26 27  4  0  0  0  0
 26 29  1  0  0  0  0
 27 28  4  0  0  0  0
 27 36  1  0  0  0  0
M  END
> <BCLConfClusterSize>
1

> <ConfClashScore>
0 

> <ConfOneFourInteractionScore>
-0.971693 

> <ConfScore>
0.636831 

> <ConfScorePBest>
0.0154275 

> <ConfTolerance>
0.959678 

> <RosettaParamsInstructions>
M  ROOT 3
M  POLY_N_BB 3
M  POLY_CA_BB 4
M  POLY_C_BB 2
M  POLY_O_BB 5
M  POLY_IGNORE 9 10 11 12 13 14 15 16 17 18 
M  POLY_UPPER 6
M  POLY_LOWER 8
M  POLY_CHG 0
M  POLY_PROPERTIES ALPHA_AA L_AA PROTEIN AROMATIC POLYMER 
M  END

$$$$



 36 37  0  0  0  0  0  0  0  0999 V2000
   -2.1148    1.2857   -0.0489 H   0  0  0  1  0  0  0  0  0  0  0  0
   -0.3896    2.1829   -0.8168 C   0  0  0  1  0  0  0  0  0  0  0  0
   -0.4598    0.5199    0.9485 N   0  0  0  1  0  0  0  0  0  0  0  0
   -1.1717    1.6344    0.3171 C   0  0  0  1  0  0  0  0  0  0  0  0
   -0.9144    2.8544   -1.6904 O   0  0  0  1  0  0  0  0  0  0  0  0
    0.9252    1.8657   -0.7744 N   0  0  0  1  0  0  0  0  0  0  0  0
   -0.1972    0.6165    1.8877 H   0  0  0  1  0  0  0  0  0  0  0  0
   -0.1447   -0.6243    0.3226 C   0  0  0  1  0  0  0  0  0  0  0  0
    1.8160    2.3892   -1.7470 C   0  0  0  1  0  0  0  0  0  0  0  0
    0.4721   -1.6987    1.1894 C   0  0  0  1  0  0  0  0  0  0  0  0
   -0.3379   -0.8059   -0.8787 O   0  0  0  1  0  0  0  0  0  0  0  0
    1.2628    1.2731   -0.0706 H   0  0  0  1  0  0  0  0  0  0  0  0
    2.3125    3.2499   -1.3500 H   0  0  0  1  0  0  0  0  0  0  0  0
    1.2658    2.6669   -2.6216 H   0  0  0  1  0  0  0  0  0  0  0  0
    2.5416    1.6455   -2.0027 H   0  0  0  1  0  0  0  0  0  0  0  0
    0.9576   -1.2457    2.0284 H   0  0  0  1  0  0  0  0  0  0  0  0
    1.1891   -2.2499    0.6176 H   0  0  0  1  0  0  0  0  0  0  0  0
   -0.2939   -2.3608    1.5355 H   0  0  0  1  0  0  0  0  0  0  0  0
   -1.4036    2.7047    1.2989 C   0  0  0  1  0  0  0  0  0  0  0  0
   -2.3546    3.8068    0.9157 C   0  0  0  1  0  0  0  0  0  0  0  0
   -2.5493    4.9873    1.5702 C   0  0  0  1  0  0  0  0  0  0  0  0
   -3.5079    5.7309    0.9308 N   0  0  0  1  0  0  0  0  0  0  0  0
   -3.9412    5.0477   -0.1725 C   0  0  0  1  0  0  0  0  0  0  0  0
   -4.8894    5.3899   -1.1405 C   0  0  0  1  0  0  0  0  0  0  0  0
   -5.1295    4.4781   -2.1454 C   0  0  0  1  0  0  0  0  0  0  0  0
   -4.4599    3.2595   -2.1949 C   0  0  0  1  0  0  0  0  0  0  0  0
   -3.5208    2.9236   -1.2449 C   0  0  0  1  0  0  0  0  0  0  0  0
   -3.2429    3.8291   -0.2153 C   0  0  0  1  0  0  0  0  0  0  0  0
   -4.7346    2.3934   -3.1891 F   0  0  0  1  0  0  0  0  0  0  0  0
   -0.4569    3.1573    1.5087 H   0  0  0  1  0  0  0  0  0  0  0  0
   -1.7854    2.2469    2.1874 H   0  0  0  1  0  0  0  0  0  0  0  0
   -2.0437    5.2812    2.4302 H   0  0  0  1  0  0  0  0  0  0  0  0
   -3.8307    6.6105    1.2180 H   0  0  0  1  0  0  0  0  0  0  0  0
   -5.3947    6.2982   -1.1039 H   0  0  0  1  0  0  0  0  0  0  0  0
   -5.8266    4.7057   -2.8828 H   0  0  0  1  0  0  0  0  0  0  0  0
   -3.0256    2.0102   -1.2923 H   0  0  0  1  0  0  0  0  0  0  0  0
  1  4  1  0  0  0  0
  2  4  1  0  0  0  0
  2  5  2  0  0  0  0
  2  6  1  0  0  0  0
  3  4  1  0  0  0  0
  3  7  1  0  0  0  0
  3  8  1  0  0  0  0
  4 19  1  0  0  0  0
  6  9  1  0  0  0  0
  6 12  1  0  0  0  0
  8 10  1  0  0  0  0
  8 11  2  0  0  0  0
  9 13  1  0  0  0  0
  9 14  1  0  0  0  0
  9 15  1  0  0  0  0
 10 16  1  0  0  0  0
 10 17  1  0  0  0  0
 10 18  1  0  0  0  0
 19 20  1  0  0  0  0
 19 30  1  0  0  0  0
 19 31  1  0  0  0  0
 20 21  4  0  0  0  0
 20 28  4  0  0  0  0
 21 22  4  0  0  0  0
 21 32  1  0  0  0  0
 22 23  4  0  0  0  0
 22 33  1  0  0  0  0
 23 24  4  0  0  0  0
 23 28  4  0  0  0  0
 24 25  4  0  0  0  0
 24 34  1  0  0  0  0
 25 26  4  0  0  0  0
 25 35  1  0  0  0  0
 26 27  4  0  0  0  0
 26 29  1  0  0  0  0
 27 28  4  0  0  0  0
 27 36  1  0  0  0  0
M  END
> <BCLConfClusterSize>
1

> <ConfClashScore>
0.000596101 

> <ConfOneFourInteractionScore>
-0.952877 

> <ConfScore>
0.653988 

> <ConfScorePBest>
0.0150618 

> <ConfTolerance>
1.13507 

> <RosettaParamsInstructions>
M  ROOT 3
M  POLY_N_BB 3
M  POLY_CA_BB 4
M  POLY_C_BB 2
M  POLY_O_BB 5
M  POLY_IGNORE 9 10 11 12 13 14 15 16 17 18 
M  POLY_UPPER 6
M  POLY_LOWER 8
M  POLY_CHG 0
M  POLY_PROPERTIES ALPHA_AA L_AA PROTEIN AROMATIC POLYMER 
M  END

$$$$



 36 37  0  0  0  0  0  0  0  0999 V2000
   -1.2972    0.9892    2.5094 H   0  0  0  1  0  0  0  0  0  0  0  0
   -1.7621    2.5436    3.8380 C   0  0  0  1  0  0  0  0  0  0  0  0
   -3.2966    1.4127    2.3156 N   0  0  0  1  0  0  0  0  0  0  0  0
   -1.9121    1.8643    2.4792 C   0  0  0  1  0  0  0  0  0  0  0  0
   -0.7400    2.3975    4.5070 O   0  0  0  1  0  0  0  0  0  0  0  0
   -2.7722    3.2997    4.2772 N   0  0  0  1  0  0  0  0  0  0  0  0
   -3.8607    1.8506    1.6445 H   0  0  0  1  0  0  0  0  0  0  0  0
   -3.8165    0.4248    3.0496 C   0  0  0  1  0  0  0  0  0  0  0  0
   -2.7243    3.9955    5.5544 C   0  0  0  1  0  0  0  0  0  0  0  0
   -5.2122   -0.0213    2.6595 C   0  0  0  1  0  0  0  0  0  0  0  0
   -3.2163   -0.1014    3.9858 O   0  0  0  1  0  0  0  0  0  0  0  0
   -3.5734    3.3888    3.7198 H   0  0  0  1  0  0  0  0  0  0  0  0
   -2.2130    3.3890    6.2726 H   0  0  0  1  0  0  0  0  0  0  0  0
   -3.7209    4.1863    5.8940 H   0  0  0  1  0  0  0  0  0  0  0  0
   -2.2037    4.9227    5.4359 H   0  0  0  1  0  0  0  0  0  0  0  0
   -5.5848    0.6110    1.8809 H   0  0  0  1  0  0  0  0  0  0  0  0
   -5.8578    0.0429    3.5104 H   0  0  0  1  0  0  0  0  0  0  0  0
   -5.1790   -1.0328    2.3120 H   0  0  0  1  0  0  0  0  0  0  0  0
   -1.4132    2.7010    1.2981 C   0  0  0  1  0  0  0  0  0  0  0  0
   -2.3611    3.8063    0.9162 C   0  0  0  1  0  0  0  0  0  0  0  0
   -2.5401    4.9935    1.5801 C   0  0  0  1  0  0  0  0  0  0  0  0
   -3.5113    5.7430    0.9339 N   0  0  0  1  0  0  0  0  0  0  0  0
   -3.9481    5.0408   -0.1718 C   0  0  0  1  0  0  0  0  0  0  0  0
   -4.8869    5.3837   -1.1395 C   0  0  0  1  0  0  0  0  0  0  0  0
   -5.1355    4.4781   -2.1453 C   0  0  0  1  0  0  0  0  0  0  0  0
   -4.4552    3.2563   -2.1991 C   0  0  0  1  0  0  0  0  0  0  0  0
   -3.5238    2.9211   -1.2499 C   0  0  0  1  0  0  0  0  0  0  0  0
   -3.2472    3.8178   -0.2091 C   0  0  0  1  0  0  0  0  0  0  0  0
   -4.7197    2.3950   -3.2002 F   0  0  0  1  0  0  0  0  0  0  0  0
   -1.2844    2.0560    0.4541 H   0  0  0  1  0  0  0  0  0  0  0  0
   -0.4718    3.1358    1.5622 H   0  0  0  1  0  0  0  0  0  0  0  0
   -2.0267    5.2861    2.4359 H   0  0  0  1  0  0  0  0  0  0  0  0
   -3.8341    6.6245    1.2151 H   0  0  0  1  0  0  0  0  0  0  0  0
   -5.3853    6.2958   -1.1038 H   0  0  0  1  0  0  0  0  0  0  0  0
   -5.8395    4.7050   -2.8765 H   0  0  0  1  0  0  0  0  0  0  0  0
   -3.0270    2.0089   -1.3020 H   0  0  0  1  0  0  0  0  0  0  0  0
  1  4  1  0  0  0  0
  2  4  1  0  0  0  0
  2  5  2  0  0  0  0
  2  6  1  0  0  0  0
  3  4  1  0  0  0  0
  3  7  1  0  0  0  0
  3  8  1  0  0  0  0
  4 19  1  0  0  0  0
  6  9  1  0  0  0  0
  6 12  1  0  0  0  0
  8 10  1  0  0  0  0
  8 11  2  0  0  0  0
  9 13  1  0  0  0  0
  9 14  1  0  0  0  0
  9 15  1  0  0  0  0
 10 16  1  0  0  0  0
 10 17  1  0  0  0  0
 10 18  1  0  0  0  0
 19 20  1  0  0  0  0
 19 30  1  0  0  0  0
 19 31  1  0  0  0  0
 20 21  4  0  0  0  0
 20 28  4  0  0  0  0
 21 22  4  0  0  0  0
 21 32  1  0  0  0  0
 22 23  4  0  0  0  0
 22 33  1  0  0  0  0
 23 24  4  0  0  0  0
 23 28  4  0  0  0  0
 24 25  4  0  0  0  0
 24 34  1  0  0  0  0
 25 26  4  0  0  0  0
 25 35  1  0  0  0  0
 26 27  4  0  0  0  0
 26 29  1  0  0  0  0
 27 28  4  0  0  0  0
 27 36  1  0  0  0  0
M  END
> <BCLConfClusterSize>
1

> <ConfClashScore>
0 

> <ConfOneFourInteractionScore>
-0.931937 

> <ConfScore>
0.657168 

> <ConfScorePBest>
0.014696 

> <ConfTolerance>
0.954601 

> <RosettaParamsInstructions>
M  ROOT 3
M  POLY_N_BB 3
M  POLY_CA_BB 4
M  POLY_C_BB 2
M  POLY_O_BB 5
M  POLY_IGNORE 9 10 11 12 13 14 15 16 17 18 
M  POLY_UPPER 6
M  POLY_LOWER 8
M  POLY_CHG 0
M  POLY_PROPERTIES ALPHA_AA L_AA PROTEIN AROMATIC POLYMER 
M  END

$$$$



 36 37  0  0  0  0  0  0  0  0999 V2000
    0.1856    2.1739    2.5756 H   0  0  0  1  0  0  0  0  0  0  0  0
    0.4295    4.2243    2.1567 C   0  0  0  1  0  0  0  0  0  0  0  0
   -1.1786    3.1926    3.7182 N   0  0  0  1  0  0  0  0  0  0  0  0
   -0.4646    3.0160    2.4625 C   0  0  0  1  0  0  0  0  0  0  0  0
    0.2143    5.3001    2.7087 O   0  0  0  1  0  0  0  0  0  0  0  0
    1.4722    4.0125    1.3486 N   0  0  0  1  0  0  0  0  0  0  0  0
   -1.4243    4.0987    3.9993 H   0  0  0  1  0  0  0  0  0  0  0  0
   -1.5139    2.1521    4.5090 C   0  0  0  1  0  0  0  0  0  0  0  0
    2.3770    5.0807    0.9509 C   0  0  0  1  0  0  0  0  0  0  0  0
   -2.1130    2.4544    5.8688 C   0  0  0  1  0  0  0  0  0  0  0  0
   -1.3398    0.9914    4.1401 O   0  0  0  1  0  0  0  0  0  0  0  0
    1.6333    3.1064    1.0120 H   0  0  0  1  0  0  0  0  0  0  0  0
    2.6475    5.6582    1.8101 H   0  0  0  1  0  0  0  0  0  0  0  0
    1.8913    5.7115    0.2360 H   0  0  0  1  0  0  0  0  0  0  0  0
    3.2575    4.6578    0.5141 H   0  0  0  1  0  0  0  0  0  0  0  0
   -2.5884    3.4126    5.8447 H   0  0  0  1  0  0  0  0  0  0  0  0
   -1.3380    2.4595    6.6066 H   0  0  0  1  0  0  0  0  0  0  0  0
   -2.8353    1.7042    6.1148 H   0  0  0  1  0  0  0  0  0  0  0  0
   -1.3979    2.6985    1.3014 C   0  0  0  1  0  0  0  0  0  0  0  0
   -2.3550    3.8075    0.9156 C   0  0  0  1  0  0  0  0  0  0  0  0
   -2.5498    4.9880    1.5700 C   0  0  0  1  0  0  0  0  0  0  0  0
   -3.5084    5.7315    0.9305 N   0  0  0  1  0  0  0  0  0  0  0  0
   -3.9416    5.0482   -0.1727 C   0  0  0  1  0  0  0  0  0  0  0  0
   -4.8899    5.3902   -1.1408 C   0  0  0  1  0  0  0  0  0  0  0  0
   -5.1298    4.4783   -2.1456 C   0  0  0  1  0  0  0  0  0  0  0  0
   -4.4601    3.2597   -2.1950 C   0  0  0  1  0  0  0  0  0  0  0  0
   -3.5210    2.9239   -1.2449 C   0  0  0  1  0  0  0  0  0  0  0  0
   -3.2433    3.8296   -0.2154 C   0  0  0  1  0  0  0  0  0  0  0  0
   -4.7347    2.3935   -3.1891 F   0  0  0  1  0  0  0  0  0  0  0  0
   -1.9779    1.8402    1.5694 H   0  0  0  1  0  0  0  0  0  0  0  0
   -0.7958    2.4700    0.4469 H   0  0  0  1  0  0  0  0  0  0  0  0
   -2.0443    5.2820    2.4300 H   0  0  0  1  0  0  0  0  0  0  0  0
   -3.8313    6.6110    1.2177 H   0  0  0  1  0  0  0  0  0  0  0  0
   -5.3951    6.2985   -1.1043 H   0  0  0  1  0  0  0  0  0  0  0  0
   -5.8269    4.7058   -2.8831 H   0  0  0  1  0  0  0  0  0  0  0  0
   -3.0257    2.0107   -1.2922 H   0  0  0  1  0  0  0  0  0  0  0  0
  1  4  1  0  0  0  0
  2  4  1  0  0  0  0
  2  5  2  0  0  0  0
  2  6  1  0  0  0  0
  3  4  1  0  0  0  0
  3  7  1  0  0  0  0
  3  8  1  0  0  0  0
  4 19  1  0  0  0  0
  6  9  1  0  0  0  0
  6 12  1  0  0  0  0
  8 10  1  0  0  0  0
  8 11  2  0  0  0  0
  9 13  1  0  0  0  0
  9 14  1  0  0  0  0
  9 15  1  0  0  0  0
 10 16  1  0  0  0  0
 10 17  1  0  0  0  0
 10 18  1  0  0  0  0
 19 20  1  0  0  0  0
 19 30  1  0  0  0  0
 19 31  1  0  0  0  0
 20 21  4  0  0  0  0
 20 28  4  0  0  0  0
 21 22  4  0  0  0  0
 21 32  1  0  0  0  0
 22 23  4  0  0  0  0
 22 33  1  0  0  0  0
 23 24  4  0  0  0  0
 23 28  4  0  0  0  0
 24 25  4  0  0  0  0
 24 34  1  0  0  0  0
 25 26  4  0  0  0  0
 25 35  1  0  0  0  0
 26 27  4  0  0  0  0
 26 29  1  0  0  0  0
 27 28  4  0  0  0  0
 27 36  1  0  0  0  0
M  END
> <BCLConfClusterSize>
1

> <ConfClashScore>
0 

> <ConfOneFourInteractionScore>
-0.979817 

> <ConfScore>
0.671768 

> <ConfScorePBest>
0.0143302 

> <ConfTolerance>
1.08236 

> <RosettaParamsInstructions>
M  ROOT 3
M  POLY_N_BB 3
M  POLY_CA_BB 4
M  POLY_C_BB 2
M  POLY_O_BB 5
M  POLY_IGNORE 9 10 11 12 13 14 15 16 17 18 
M  POLY_UPPER 6
M  POLY_LOWER 8
M  POLY_CHG 0
M  POLY_PROPERTIES ALPHA_AA L_AA PROTEIN AROMATIC POLYMER 
M  END

$$$$



 36 37  0  0  0  0  0  0  0  0999 V2000
    0.4069    3.7992    1.1584 H   0  0  0  1  0  0  0  0  0  0  0  0
    0.8758    1.7348    1.3500 C   0  0  0  1  0  0  0  0  0  0  0  0
    0.0393    2.8656   -0.6595 N   0  0  0  1  0  0  0  0  0  0  0  0
    0.0212    2.8694    0.7957 C   0  0  0  1  0  0  0  0  0  0  0  0
    0.6779    1.2897    2.4798 O   0  0  0  1  0  0  0  0  0  0  0  0
    1.8478    1.2381    0.5698 N   0  0  0  1  0  0  0  0  0  0  0  0
    0.5108    3.5854   -1.1285 H   0  0  0  1  0  0  0  0  0  0  0  0
   -0.5705    1.9056   -1.3853 C   0  0  0  1  0  0  0  0  0  0  0  0
    2.8002    0.2480    1.0498 C   0  0  0  1  0  0  0  0  0  0  0  0
   -0.5126    2.0099   -2.8969 C   0  0  0  1  0  0  0  0  0  0  0  0
   -1.1569    0.9721   -0.8393 O   0  0  0  1  0  0  0  0  0  0  0  0
    1.9188    1.5529   -0.3555 H   0  0  0  1  0  0  0  0  0  0  0  0
    2.3924   -0.2569    1.9006 H   0  0  0  1  0  0  0  0  0  0  0  0
    3.7114    0.7353    1.3275 H   0  0  0  1  0  0  0  0  0  0  0  0
    2.9971   -0.4625    0.2743 H   0  0  0  1  0  0  0  0  0  0  0  0
   -1.3776    2.5297   -3.2525 H   0  0  0  1  0  0  0  0  0  0  0  0
   -0.4873    1.0279   -3.3212 H   0  0  0  1  0  0  0  0  0  0  0  0
    0.3681    2.5457   -3.1837 H   0  0  0  1  0  0  0  0  0  0  0  0
   -1.4036    2.7047    1.2989 C   0  0  0  1  0  0  0  0  0  0  0  0
   -2.3546    3.8068    0.9157 C   0  0  0  1  0  0  0  0  0  0  0  0
   -2.5493    4.9873    1.5702 C   0  0  0  1  0  0  0  0  0  0  0  0
   -3.5079    5.7309    0.9308 N   0  0  0  1  0  0  0  0  0  0  0  0
   -3.9412    5.0477   -0.1725 C   0  0  0  1  0  0  0  0  0  0  0  0
   -4.8894    5.3899   -1.1405 C   0  0  0  1  0  0  0  0  0  0  0  0
   -5.1295    4.4781   -2.1454 C   0  0  0  1  0  0  0  0  0  0  0  0
   -4.4599    3.2595   -2.1949 C   0  0  0  1  0  0  0  0  0  0  0  0
   -3.5208    2.9236   -1.2449 C   0  0  0  1  0  0  0  0  0  0  0  0
   -3.2429    3.8291   -0.2153 C   0  0  0  1  0  0  0  0  0  0  0  0
   -4.7346    2.3934   -3.1891 F   0  0  0  1  0  0  0  0  0  0  0  0
   -1.3724    2.6523    2.3671 H   0  0  0  1  0  0  0  0  0  0  0  0
   -1.7878    1.7861    0.9072 H   0  0  0  1  0  0  0  0  0  0  0  0
   -2.0437    5.2812    2.4302 H   0  0  0  1  0  0  0  0  0  0  0  0
   -3.8307    6.6105    1.2180 H   0  0  0  1  0  0  0  0  0  0  0  0
   -5.3947    6.2982   -1.1039 H   0  0  0  1  0  0  0  0  0  0  0  0
   -5.8266    4.7057   -2.8828 H   0  0  0  1  0  0  0  0  0  0  0  0
   -3.0256    2.0102   -1.2923 H   0  0  0  1  0  0  0  0  0  0  0  0
  1  4  1  0  0  0  0
  2  4  1  0  0  0  0
  2  5  2  0  0  0  0
  2  6  1  0  0  0  0
  3  4  1  0  0  0  0
  3  7  1  0  0  0  0
  3  8  1  0  0  0  0
  4 19  1  0  0  0  0
  6  9  1  0  0  0  0
  6 12  1  0  0  0  0
  8 10  1  0  0  0  0
  8 11  2  0  0  0  0
  9 13  1  0  0  0  0
  9 14  1  0  0  0  0
  9 15  1  0  0  0  0
 10 16  1  0  0  0  0
 10 17  1  0  0  0  0
 10 18  1  0  0  0  0
 19 20  1  0  0  0  0
 19 30  1  0  0  0  0
 19 31  1  0  0  0  0
 20 21  4  0  0  0  0
 20 28  4  0  0  0  0
 21 22  4  0  0  0  0
 21 32  1  0  0  0  0
 22 23  4  0  0  0  0
 22 33  1  0  0  0  0
 23 24  4  0  0  0  0
 23 28  4  0  0  0  0
 24 25  4  0  0  0  0
 24 34  1  0  0  0  0
 25 26  4  0  0  0  0
 25 35  1  0  0  0  0
 26 27  4  0  0  0  0
 26 29  1  0  0  0  0
 27 28  4  0  0  0  0
 27 36  1  0  0  0  0
M  END
> <BCLConfClusterSize>
1

> <ConfClashScore>
0 

> <ConfOneFourInteractionScore>
-0.953096 

> <ConfScore>
0.685542 

> <ConfScorePBest>
0.0139644 

> <ConfTolerance>
1.14054 

> <RosettaParamsInstructions>
M  ROOT 3
M  POLY_N_BB 3
M  POLY_CA_BB 4
M  POLY_C_BB 2
M  POLY_O_BB 5
M  POLY_IGNORE 9 10 11 12 13 14 15 16 17 18 
M  POLY_UPPER 6
M  POLY_LOWER 8
M  POLY_CHG 0
M  POLY_PROPERTIES ALPHA_AA L_AA PROTEIN AROMATIC POLYMER 
M  END

$$$$



 36 37  0  0  0  0  0  0  0  0999 V2000
   -1.6924    2.9951    3.3808 H   0  0  0  1  0  0  0  0  0  0  0  0
   -2.9791    1.4348    2.7757 C   0  0  0  1  0  0  0  0  0  0  0  0
   -0.5724    1.2765    3.1220 N   0  0  0  1  0  0  0  0  0  0  0  0
   -1.6506    2.1628    2.7097 C   0  0  0  1  0  0  0  0  0  0  0  0
   -3.0594    0.2404    2.5378 O   0  0  0  1  0  0  0  0  0  0  0  0
   -4.0351    2.1832    3.1072 N   0  0  0  1  0  0  0  0  0  0  0  0
    0.2293    1.2146    2.5618 H   0  0  0  1  0  0  0  0  0  0  0  0
   -0.6376    0.5444    4.2377 C   0  0  0  1  0  0  0  0  0  0  0  0
   -5.3582    1.5831    3.1919 C   0  0  0  1  0  0  0  0  0  0  0  0
    0.4110   -0.5424    4.3746 C   0  0  0  1  0  0  0  0  0  0  0  0
   -1.4853    0.7253    5.1077 O   0  0  0  1  0  0  0  0  0  0  0  0
   -3.9185    3.1382    3.2937 H   0  0  0  1  0  0  0  0  0  0  0  0
   -5.4421    0.7996    2.4680 H   0  0  0  1  0  0  0  0  0  0  0  0
   -6.1008    2.3287    2.9978 H   0  0  0  1  0  0  0  0  0  0  0  0
   -5.5046    1.1799    4.1721 H   0  0  0  1  0  0  0  0  0  0  0  0
    1.3863   -0.1033    4.3459 H   0  0  0  1  0  0  0  0  0  0  0  0
    0.3098   -1.2388    3.5685 H   0  0  0  1  0  0  0  0  0  0  0  0
    0.2767   -1.0519    5.3058 H   0  0  0  1  0  0  0  0  0  0  0  0
   -1.4036    2.7047    1.2989 C   0  0  0  1  0  0  0  0  0  0  0  0
   -2.3546    3.8068    0.9157 C   0  0  0  1  0  0  0  0  0  0  0  0
   -2.5493    4.9873    1.5702 C   0  0  0  1  0  0  0  0  0  0  0  0
   -3.5079    5.7309    0.9308 N   0  0  0  1  0  0  0  0  0  0  0  0
   -3.9412    5.0477   -0.1725 C   0  0  0  1  0  0  0  0  0  0  0  0
   -4.8894    5.3899   -1.1405 C   0  0  0  1  0  0  0  0  0  0  0  0
   -5.1295    4.4781   -2.1454 C   0  0  0  1  0  0  0  0  0  0  0  0
   -4.4599    3.2595   -2.1949 C   0  0  0  1  0  0  0  0  0  0  0  0
   -3.5208    2.9236   -1.2449 C   0  0  0  1  0  0  0  0  0  0  0  0
   -3.2429    3.8291   -0.2153 C   0  0  0  1  0  0  0  0  0  0  0  0
   -4.7346    2.3934   -3.1891 F   0  0  0  1  0  0  0  0  0  0  0  0
   -1.5145    1.9012    0.6011 H   0  0  0  1  0  0  0  0  0  0  0  0
   -0.4045    3.0847    1.2501 H   0  0  0  1  0  0  0  0  0  0  0  0
   -2.0437    5.2812    2.4302 H   0  0  0  1  0  0  0  0  0  0  0  0
   -3.8307    6.6105    1.2180 H   0  0  0  1  0  0  0  0  0  0  0  0
   -5.3947    6.2982   -1.1039 H   0  0  0  1  0  0  0  0  0  0  0  0
   -5.8266    4.7057   -2.8828 H   0  0  0  1  0  0  0  0  0  0  0  0
   -3.0256    2.0102   -1.2923 H   0  0  0  1  0  0  0  0  0  0  0  0
  1  4  1  0  0  0  0
  2  4  1  0  0  0  0
  2  5  2  0  0  0  0
  2  6  1  0  0  0  0
  3  4  1  0  0  0  0
  3  7  1  0  0  0  0
  3  8  1  0  0  0  0
  4 19  1  0  0  0  0
  6  9  1  0  0  0  0
  6 12  1  0  0  0  0
  8 10  1  0  0  0  0
  8 11  2  0  0  0  0
  9 13  1  0  0  0  0
  9 14  1  0  0  0  0
  9 15  1  0  0  0  0
 10 16  1  0  0  0  0
 10 17  1  0  0  0  0
 10 18  1  0  0  0  0
 19 20  1  0  0  0  0
 19 30  1  0  0  0  0
 19 31  1  0  0  0  0
 20 21  4  0  0  0  0
 20 28  4  0  0  0  0
 21 22  4  0  0  0  0
 21 32  1  0  0  0  0
 22 23  4  0  0  0  0
 22 33  1  0  0  0  0
 23 24  4  0  0  0  0
 23 28  4  0  0  0  0
 24 25  4  0  0  0  0
 24 34  1  0  0  0  0
 25 26  4  0  0  0  0
 25 35  1  0  0  0  0
 26 27  4  0  0  0  0
 26 29  1  0  0  0  0
 27 28  4  0  0  0  0
 27 36  1  0  0  0  0
M  END
> <BCLConfClusterSize>
1

> <ConfClashScore>
0 

> <ConfOneFourInteractionScore>
-0.985807 

> <ConfScore>
0.692047 

> <ConfScorePBest>
0.0135986 

> <ConfTolerance>
1.11671 

> <RosettaParamsInstructions>
M  ROOT 3
M  POLY_N_BB 3
M  POLY_CA_BB 4
M  POLY_C_BB 2
M  POLY_O_BB 5
M  POLY_IGNORE 9 10 11 12 13 14 15 16 17 18 
M  POLY_UPPER 6
M  POLY_LOWER 8
M  POLY_CHG 0
M  POLY_PROPERTIES ALPHA_AA L_AA PROTEIN AROMATIC POLYMER 
M  END

$$$$



 36 37  0  0  0  0  0  0  0  0999 V2000
   -0.1741    3.6249   -0.1636 H   0  0  0  1  0  0  0  0  0  0  0  0
    1.0276    3.2827    1.5378 C   0  0  0  1  0  0  0  0  0  0  0  0
    0.3178    1.6188   -0.0932 N   0  0  0  1  0  0  0  0  0  0  0  0
   -0.0601    2.8557    0.5714 C   0  0  0  1  0  0  0  0  0  0  0  0
    1.2416    4.4641    1.7571 O   0  0  0  1  0  0  0  0  0  0  0  0
    1.7496    2.3190    2.1462 N   0  0  0  1  0  0  0  0  0  0  0  0
   -0.3590    0.9203   -0.2129 H   0  0  0  1  0  0  0  0  0  0  0  0
    1.5616    1.4005   -0.5486 C   0  0  0  1  0  0  0  0  0  0  0  0
    2.8915    2.6749    2.9753 C   0  0  0  1  0  0  0  0  0  0  0  0
    1.7485    0.1408   -1.3869 C   0  0  0  1  0  0  0  0  0  0  0  0
    2.5031    2.1572   -0.3147 O   0  0  0  1  0  0  0  0  0  0  0  0
    1.5046    1.3773    2.0297 H   0  0  0  1  0  0  0  0  0  0  0  0
    3.4377    3.4682    2.5093 H   0  0  0  1  0  0  0  0  0  0  0  0
    3.5284    1.8227    3.0895 H   0  0  0  1  0  0  0  0  0  0  0  0
    2.5479    2.9953    3.9366 H   0  0  0  1  0  0  0  0  0  0  0  0
    1.5551   -0.7216   -0.7838 H   0  0  0  1  0  0  0  0  0  0  0  0
    2.7532    0.1019   -1.7527 H   0  0  0  1  0  0  0  0  0  0  0  0
    1.0682    0.1581   -2.2127 H   0  0  0  1  0  0  0  0  0  0  0  0
   -1.3971    2.6976    1.3018 C   0  0  0  1  0  0  0  0  0  0  0  0
   -2.3551    3.8076    0.9156 C   0  0  0  1  0  0  0  0  0  0  0  0
   -2.5499    4.9880    1.5700 C   0  0  0  1  0  0  0  0  0  0  0  0
   -3.5085    5.7315    0.9305 N   0  0  0  1  0  0  0  0  0  0  0  0
   -3.9417    5.0483   -0.1727 C   0  0  0  1  0  0  0  0  0  0  0  0
   -4.8899    5.3902   -1.1409 C   0  0  0  1  0  0  0  0  0  0  0  0
   -5.1299    4.4783   -2.1456 C   0  0  0  1  0  0  0  0  0  0  0  0
   -4.4601    3.2598   -2.1950 C   0  0  0  1  0  0  0  0  0  0  0  0
   -3.5210    2.9240   -1.2449 C   0  0  0  1  0  0  0  0  0  0  0  0
   -3.2433    3.8297   -0.2154 C   0  0  0  1  0  0  0  0  0  0  0  0
   -4.7347    2.3935   -3.1891 F   0  0  0  1  0  0  0  0  0  0  0  0
   -1.2265    2.7330    2.3575 H   0  0  0  1  0  0  0  0  0  0  0  0
   -1.8298    1.7544    1.0412 H   0  0  0  1  0  0  0  0  0  0  0  0
   -2.0443    5.2821    2.4300 H   0  0  0  1  0  0  0  0  0  0  0  0
   -3.8314    6.6111    1.2176 H   0  0  0  1  0  0  0  0  0  0  0  0
   -5.3952    6.2985   -1.1043 H   0  0  0  1  0  0  0  0  0  0  0  0
   -5.8269    4.7058   -2.8832 H   0  0  0  1  0  0  0  0  0  0  0  0
   -3.0258    2.0107   -1.2922 H   0  0  0  1  0  0  0  0  0  0  0  0
  1  4  1  0  0  0  0
  2  4  1  0  0  0  0
  2  5  2  0  0  0  0
  2  6  1  0  0  0  0
  3  4  1  0  0  0  0
  3  7  1  0  0  0  0
  3  8  1  0  0  0  0
  4 19  1  0  0  0  0
  6  9  1  0  0  0  0
  6 12  1  0  0  0  0
  8 10  1  0  0  0  0
  8 11  2  0  0  0  0
  9 13  1  0  0  0  0
  9 14  1  0  0  0  0
  9 15  1  0  0  0  0
 10 16  1  0  0  0  0
 10 17  1  0  0  0  0
 10 18  1  0  0  0  0
 19 20  1  0  0  0  0
 19 30  1  0  0  0  0
 19 31  1  0  0  0  0
 20 21  4  0  0  0  0
 20 28  4  0  0  0  0
 21 22  4  0  0  0  0
 21 32  1  0  0  0  0
 22 23  4  0  0  0  0
 22 33  1  0  0  0  0
 23 24  4  0  0  0  0
 23 28  4  0  0  0  0
 24 25  4  0  0  0  0
 24 34  1  0  0  0  0
 25 26  4  0  0  0  0
 25 35  1  0  0  0  0
 26 27  4  0  0  0  0
 26 29  1  0  0  0  0
 27 28  4  0  0  0  0
 27 36  1  0  0  0  0
M  END
> <BCLConfClusterSize>
1

> <ConfClashScore>
0 

> <ConfOneFourInteractionScore>
-0.948834 

> <ConfScore>
0.696404 

> <ConfScorePBest>
0.0132328 

> <ConfTolerance>
1.32326 

> <RosettaParamsInstructions>
M  ROOT 3
M  POLY_N_BB 3
M  POLY_CA_BB 4
M  POLY_C_BB 2
M  POLY_O_BB 5
M  POLY_IGNORE 9 10 11 12 13 14 15 16 17 18 
M  POLY_UPPER 6
M  POLY_LOWER 8
M  POLY_CHG 0
M  POLY_PROPERTIES ALPHA_AA L_AA PROTEIN AROMATIC POLYMER 
M  END

$$$$



 36 37  0  0  0  0  0  0  0  0999 V2000
    0.4468    1.8911    0.6843 H   0  0  0  1  0  0  0  0  0  0  0  0
   -0.6906    2.1891   -1.0648 C   0  0  0  1  0  0  0  0  0  0  0  0
    0.4719    3.9107    0.2898 N   0  0  0  1  0  0  0  0  0  0  0  0
   -0.2289    2.6356    0.3181 C   0  0  0  1  0  0  0  0  0  0  0  0
   -0.8186    2.9945   -1.9860 O   0  0  0  1  0  0  0  0  0  0  0  0
   -0.9411    0.8837   -1.1997 N   0  0  0  1  0  0  0  0  0  0  0  0
    0.2609    4.5693   -0.4046 H   0  0  0  1  0  0  0  0  0  0  0  0
    1.4023    4.1854    1.2084 C   0  0  0  1  0  0  0  0  0  0  0  0
   -1.3588    0.2990   -2.4652 C   0  0  0  1  0  0  0  0  0  0  0  0
    2.1719    5.4754    1.0013 C   0  0  0  1  0  0  0  0  0  0  0  0
    1.6321    3.4569    2.1597 O   0  0  0  1  0  0  0  0  0  0  0  0
   -0.8400    0.2996   -0.4193 H   0  0  0  1  0  0  0  0  0  0  0  0
   -1.3299    1.0461   -3.2307 H   0  0  0  1  0  0  0  0  0  0  0  0
   -2.3560   -0.0774   -2.3721 H   0  0  0  1  0  0  0  0  0  0  0  0
   -0.6975   -0.5016   -2.7235 H   0  0  0  1  0  0  0  0  0  0  0  0
    2.8597    5.6146    1.8091 H   0  0  0  1  0  0  0  0  0  0  0  0
    1.4877    6.2974    0.9701 H   0  0  0  1  0  0  0  0  0  0  0  0
    2.7113    5.4244    0.0786 H   0  0  0  1  0  0  0  0  0  0  0  0
   -1.4036    2.7047    1.2989 C   0  0  0  1  0  0  0  0  0  0  0  0
   -2.3546    3.8068    0.9157 C   0  0  0  1  0  0  0  0  0  0  0  0
   -2.5493    4.9873    1.5702 C   0  0  0  1  0  0  0  0  0  0  0  0
   -3.5079    5.7309    0.9308 N   0  0  0  1  0  0  0  0  0  0  0  0
   -3.9412    5.0477   -0.1725 C   0  0  0  1  0  0  0  0  0  0  0  0
   -4.8894    5.3899   -1.1405 C   0  0  0  1  0  0  0  0  0  0  0  0
   -5.1295    4.4781   -2.1454 C   0  0  0  1  0  0  0  0  0  0  0  0
   -4.4599    3.2595   -2.1949 C   0  0  0  1  0  0  0  0  0  0  0  0
   -3.5208    2.9236   -1.2449 C   0  0  0  1  0  0  0  0  0  0  0  0
   -3.2429    3.8291   -0.2153 C   0  0  0  1  0  0  0  0  0  0  0  0
   -4.7346    2.3934   -3.1891 F   0  0  0  1  0  0  0  0  0  0  0  0
   -1.0282    2.8918    2.2832 H   0  0  0  1  0  0  0  0  0  0  0  0
   -1.9258    1.7709    1.2872 H   0  0  0  1  0  0  0  0  0  0  0  0
   -2.0437    5.2812    2.4302 H   0  0  0  1  0  0  0  0  0  0  0  0
   -3.8307    6.6105    1.2180 H   0  0  0  1  0  0  0  0  0  0  0  0
   -5.3947    6.2982   -1.1039 H   0  0  0  1  0  0  0  0  0  0  0  0
   -5.8266    4.7057   -2.8828 H   0  0  0  1  0  0  0  0  0  0  0  0
   -3.0256    2.0102   -1.2923 H   0  0  0  1  0  0  0  0  0  0  0  0
  1  4  1  0  0  0  0
  2  4  1  0  0  0  0
  2  5  2  0  0  0  0
  2  6  1  0  0  0  0
  3  4  1  0  0  0  0
  3  7  1  0  0  0  0
  3  8  1  0  0  0  0
  4 19  1  0  0  0  0
  6  9  1  0  0  0  0
  6 12  1  0  0  0  0
  8 10  1  0  0  0  0
  8 11  2  0  0  0  0
  9 13  1  0  0  0  0
  9 14  1  0  0  0  0
  9 15  1  0  0  0  0
 10 16  1  0  0  0  0
 10 17  1  0  0  0  0
 10 18  1  0  0  0  0
 19 20  1  0  0  0  0
 19 30  1  0  0  0  0
 19 31  1  0  0  0  0
 20 21  4  0  0  0  0
 20 28  4  0  0  0  0
 21 22  4  0  0  0  0
 21 32  1  0  0  0  0
 22 23  4  0  0  0  0
 22 33  1  0  0  0  0
 23 24  4  0  0  0  0
 23 28  4  0  0  0  0
 24 25  4  0  0  0  0
 24 34  1  0  0  0  0
 25 26  4  0  0  0  0
 25 35  1  0  0  0  0
 26 27  4  0  0  0  0
 26 29  1  0  0  0  0
 27 28  4  0  0  0  0
 27 36  1  0  0  0  0
M  END
> <BCLConfClusterSize>
1

> <ConfClashScore>
0 

> <ConfOneFourInteractionScore>
-0.980789 

> <ConfScore>
0.698508 

> <ConfScorePBest>
0.012867 

> <ConfTolerance>
0.994036 

> <RosettaParamsInstructions>
M  ROOT 3
M  POLY_N_BB 3
M  POLY_CA_BB 4
M  POLY_C_BB 2
M  POLY_O_BB 5
M  POLY_IGNORE 9 10 11 12 13 14 15 16 17 18 
M  POLY_UPPER 6
M  POLY_LOWER 8
M  POLY_CHG 0
M  POLY_PROPERTIES ALPHA_AA L_AA PROTEIN AROMATIC POLYMER 
M  END

$$$$



 36 37  0  0  0  0  0  0  0  0999 V2000
   -2.9760    1.2530    1.4358 H   0  0  0  1  0  0  0  0  0  0  0  0
   -1.2292    0.3946    2.3073 C   0  0  0  1  0  0  0  0  0  0  0  0
   -2.6387    2.0943    3.3088 N   0  0  0  1  0  0  0  0  0  0  0  0
   -2.1535    1.5814    2.0362 C   0  0  0  1  0  0  0  0  0  0  0  0
   -0.4699   -0.0259    1.4353 O   0  0  0  1  0  0  0  0  0  0  0  0
   -1.2712   -0.1733    3.5229 N   0  0  0  1  0  0  0  0  0  0  0  0
   -3.5894    1.9976    3.5261 H   0  0  0  1  0  0  0  0  0  0  0  0
   -1.8332    2.6923    4.1911 C   0  0  0  1  0  0  0  0  0  0  0  0
   -0.3540   -1.1998    3.9951 C   0  0  0  1  0  0  0  0  0  0  0  0
   -2.4919    3.1559    5.4757 C   0  0  0  1  0  0  0  0  0  0  0  0
   -0.6415    2.8633    3.9931 O   0  0  0  1  0  0  0  0  0  0  0  0
   -1.9724    0.1258    4.1388 H   0  0  0  1  0  0  0  0  0  0  0  0
    0.2461   -1.5452    3.1794 H   0  0  0  1  0  0  0  0  0  0  0  0
   -0.9125   -2.0186    4.3985 H   0  0  0  1  0  0  0  0  0  0  0  0
    0.2786   -0.7904    4.7547 H   0  0  0  1  0  0  0  0  0  0  0  0
   -3.2083    3.9193    5.2545 H   0  0  0  1  0  0  0  0  0  0  0  0
   -1.7472    3.5468    6.1372 H   0  0  0  1  0  0  0  0  0  0  0  0
   -2.9850    2.3287    5.9421 H   0  0  0  1  0  0  0  0  0  0  0  0
   -1.4132    2.7010    1.2981 C   0  0  0  1  0  0  0  0  0  0  0  0
   -2.3611    3.8063    0.9162 C   0  0  0  1  0  0  0  0  0  0  0  0
   -2.5401    4.9935    1.5801 C   0  0  0  1  0  0  0  0  0  0  0  0
   -3.5113    5.7430    0.9339 N   0  0  0  1  0  0  0  0  0  0  0  0
   -3.9481    5.0408   -0.1718 C   0  0  0  1  0  0  0  0  0  0  0  0
   -4.8869    5.3837   -1.1395 C   0  0  0  1  0  0  0  0  0  0  0  0
   -5.1355    4.4781   -2.1453 C   0  0  0  1  0  0  0  0  0  0  0  0
   -4.4552    3.2563   -2.1991 C   0  0  0  1  0  0  0  0  0  0  0  0
   -3.5238    2.9211   -1.2499 C   0  0  0  1  0  0  0  0  0  0  0  0
   -3.2472    3.8178   -0.2091 C   0  0  0  1  0  0  0  0  0  0  0  0
   -4.7197    2.3950   -3.2002 F   0  0  0  1  0  0  0  0  0  0  0  0
   -0.9656    2.3011    0.4123 H   0  0  0  1  0  0  0  0  0  0  0  0
   -0.6508    3.0973    1.9358 H   0  0  0  1  0  0  0  0  0  0  0  0
   -2.0267    5.2861    2.4359 H   0  0  0  1  0  0  0  0  0  0  0  0
   -3.8341    6.6245    1.2151 H   0  0  0  1  0  0  0  0  0  0  0  0
   -5.3853    6.2958   -1.1038 H   0  0  0  1  0  0  0  0  0  0  0  0
   -5.8395    4.7050   -2.8765 H   0  0  0  1  0  0  0  0  0  0  0  0
   -3.0270    2.0089   -1.3020 H   0  0  0  1  0  0  0  0  0  0  0  0
  1  4  1  0  0  0  0
  2  4  1  0  0  0  0
  2  5  2  0  0  0  0
  2  6  1  0  0  0  0
  3  4  1  0  0  0  0
  3  7  1  0  0  0  0
  3  8  1  0  0  0  0
  4 19  1  0  0  0  0
  6  9  1  0  0  0  0
  6 12  1  0  0  0  0
  8 10  1  0  0  0  0
  8 11  2  0  0  0  0
  9 13  1  0  0  0  0
  9 14  1  0  0  0  0
  9 15  1  0  0  0  0
 10 16  1  0  0  0  0
 10 17  1  0  0  0  0
 10 18  1  0  0  0  0
 19 20  1  0  0  0  0
 19 30  1  0  0  0  0
 19 31  1  0  0  0  0
 20 21  4  0  0  0  0
 20 28  4  0  0  0  0
 21 22  4  0  0  0  0
 21 32  1  0  0  0  0
 22 23  4  0  0  0  0
 22 33  1  0  0  0  0
 23 24  4  0  0  0  0
 23 28  4  0  0  0  0
 24 25  4  0  0  0  0
 24 34  1  0  0  0  0
 25 26  4  0  0  0  0
 25 35  1  0  0  0  0
 26 27  4  0  0  0  0
 26 29  1  0  0  0  0
 27 28  4  0  0  0  0
 27 36  1  0  0  0  0
M  END
> <BCLConfClusterSize>
1

> <ConfClashScore>
0 

> <ConfOneFourInteractionScore>
-0.953455 

> <ConfScore>
0.711255 

> <ConfScorePBest>
0.0125012 

> <ConfTolerance>
1.48146 

> <RosettaParamsInstructions>
M  ROOT 3
M  POLY_N_BB 3
M  POLY_CA_BB 4
M  POLY_C_BB 2
M  POLY_O_BB 5
M  POLY_IGNORE 9 10 11 12 13 14 15 16 17 18 
M  POLY_UPPER 6
M  POLY_LOWER 8
M  POLY_CHG 0
M  POLY_PROPERTIES ALPHA_AA L_AA PROTEIN AROMATIC POLYMER 
M  END

$$$$



 36 37  0  0  0  0  0  0  0  0999 V2000
    0.6453    2.2436    1.5876 H   0  0  0  1  0  0  0  0  0  0  0  0
    0.4960    3.8227    0.1823 C   0  0  0  1  0  0  0  0  0  0  0  0
    0.1990    3.9978    2.6037 N   0  0  0  1  0  0  0  0  0  0  0  0
    0.0500    3.1221    1.4510 C   0  0  0  1  0  0  0  0  0  0  0  0
    0.8988    3.1864   -0.7905 O   0  0  0  1  0  0  0  0  0  0  0  0
    0.4206    5.1565    0.1987 N   0  0  0  1  0  0  0  0  0  0  0  0
   -0.4953    4.6659    2.7830 H   0  0  0  1  0  0  0  0  0  0  0  0
    1.2492    3.9227    3.4261 C   0  0  0  1  0  0  0  0  0  0  0  0
    0.6834    5.9645   -0.9828 C   0  0  0  1  0  0  0  0  0  0  0  0
    1.2311    4.8743    4.6064 C   0  0  0  1  0  0  0  0  0  0  0  0
    2.1808    3.1379    3.2530 O   0  0  0  1  0  0  0  0  0  0  0  0
    0.1800    5.6064    1.0354 H   0  0  0  1  0  0  0  0  0  0  0  0
    1.6760    5.7725   -1.3333 H   0  0  0  1  0  0  0  0  0  0  0  0
    0.5875    7.0009   -0.7344 H   0  0  0  1  0  0  0  0  0  0  0  0
   -0.0199    5.7144   -1.7493 H   0  0  0  1  0  0  0  0  0  0  0  0
    1.3021    5.8821    4.2539 H   0  0  0  1  0  0  0  0  0  0  0  0
    2.0604    4.6620    5.2483 H   0  0  0  1  0  0  0  0  0  0  0  0
    0.3178    4.7505    5.1501 H   0  0  0  1  0  0  0  0  0  0  0  0
   -1.4036    2.7047    1.2989 C   0  0  0  1  0  0  0  0  0  0  0  0
   -2.3546    3.8068    0.9157 C   0  0  0  1  0  0  0  0  0  0  0  0
   -2.5493    4.9873    1.5702 C   0  0  0  1  0  0  0  0  0  0  0  0
   -3.5079    5.7309    0.9308 N   0  0  0  1  0  0  0  0  0  0  0  0
   -3.9412    5.0477   -0.1725 C   0  0  0  1  0  0  0  0  0  0  0  0
   -4.8894    5.3899   -1.1405 C   0  0  0  1  0  0  0  0  0  0  0  0
   -5.1295    4.4781   -2.1454 C   0  0  0  1  0  0  0  0  0  0  0  0
   -4.4599    3.2595   -2.1949 C   0  0  0  1  0  0  0  0  0  0  0  0
   -3.5208    2.9236   -1.2449 C   0  0  0  1  0  0  0  0  0  0  0  0
   -3.2429    3.8291   -0.2153 C   0  0  0  1  0  0  0  0  0  0  0  0
   -4.7346    2.3934   -3.1891 F   0  0  0  1  0  0  0  0  0  0  0  0
   -1.7295    2.2975    2.2331 H   0  0  0  1  0  0  0  0  0  0  0  0
   -1.4526    1.9488    0.5431 H   0  0  0  1  0  0  0  0  0  0  0  0
   -2.0437    5.2812    2.4302 H   0  0  0  1  0  0  0  0  0  0  0  0
   -3.8307    6.6105    1.2180 H   0  0  0  1  0  0  0  0  0  0  0  0
   -5.3947    6.2982   -1.1039 H   0  0  0  1  0  0  0  0  0  0  0  0
   -5.8266    4.7057   -2.8828 H   0  0  0  1  0  0  0  0  0  0  0  0
   -3.0256    2.0102   -1.2923 H   0  0  0  1  0  0  0  0  0  0  0  0
  1  4  1  0  0  0  0
  2  4  1  0  0  0  0
  2  5  2  0  0  0  0
  2  6  1  0  0  0  0
  3  4  1  0  0  0  0
  3  7  1  0  0  0  0
  3  8  1  0  0  0  0
  4 19  1  0  0  0  0
  6  9  1  0  0  0  0
  6 12  1  0  0  0  0
  8 10  1  0  0  0  0
  8 11  2  0  0  0  0
  9 13  1  0  0  0  0
  9 14  1  0  0  0  0
  9 15  1  0  0  0  0
 10 16  1  0  0  0  0
 10 17  1  0  0  0  0
 10 18  1  0  0  0  0
 19 20  1  0  0  0  0
 19 30  1  0  0  0  0
 19 31  1  0  0  0  0
 20 21  4  0  0  0  0
 20 28  4  0  0  0  0
 21 22  4  0  0  0  0
 21 32  1  0  0  0  0
 22 23  4  0  0  0  0
 22 33  1  0  0  0  0
 23 24  4  0  0  0  0
 23 28  4  0  0  0  0
 24 25  4  0  0  0  0
 24 34  1  0  0  0  0
 25 26  4  0  0  0  0
 25 35  1  0  0  0  0
 26 27  4  0  0  0  0
 26 29  1  0  0  0  0
 27 28  4  0  0  0  0
 27 36  1  0  0  0  0
M  END
> <BCLConfClusterSize>
1

> <ConfClashScore>
0 

> <ConfOneFourInteractionScore>
-0.957074 

> <ConfScore>
0.712053 

> <ConfScorePBest>
0.0121354 

> <ConfTolerance>
1.5114 

> <RosettaParamsInstructions>
M  ROOT 3
M  POLY_N_BB 3
M  POLY_CA_BB 4
M  POLY_C_BB 2
M  POLY_O_BB 5
M  POLY_IGNORE 9 10 11 12 13 14 15 16 17 18 
M  POLY_UPPER 6
M  POLY_LOWER 8
M  POLY_CHG 0
M  POLY_PROPERTIES ALPHA_AA L_AA PROTEIN AROMATIC POLYMER 
M  END

$$$$



 36 37  0  0  0  0  0  0  0  0999 V2000
    0.1866    3.9279    1.9586 H   0  0  0  1  0  0  0  0  0  0  0  0
    0.9125    1.9463    1.8480 C   0  0  0  1  0  0  0  0  0  0  0  0
    0.5164    3.4549   -0.0272 N   0  0  0  1  0  0  0  0  0  0  0  0
    0.0674    3.0872    1.3074 C   0  0  0  1  0  0  0  0  0  0  0  0
    0.8675    1.6251    3.0348 O   0  0  0  1  0  0  0  0  0  0  0  0
    1.6965    1.3266    0.9527 N   0  0  0  1  0  0  0  0  0  0  0  0
    0.3739    2.8251   -0.7643 H   0  0  0  1  0  0  0  0  0  0  0  0
    1.1162    4.6211   -0.2823 C   0  0  0  1  0  0  0  0  0  0  0  0
    2.5650    0.2369    1.3724 C   0  0  0  1  0  0  0  0  0  0  0  0
    1.5264    4.8838   -1.7369 C   0  0  0  1  0  0  0  0  0  0  0  0
    1.2733    5.4897    0.5598 O   0  0  0  1  0  0  0  0  0  0  0  0
    1.6843    1.6085    0.0142 H   0  0  0  1  0  0  0  0  0  0  0  0
    2.2053   -0.1720    2.2934 H   0  0  0  1  0  0  0  0  0  0  0  0
    3.5594    0.6069    1.5110 H   0  0  0  1  0  0  0  0  0  0  0  0
    2.5689   -0.5252    0.6214 H   0  0  0  1  0  0  0  0  0  0  0  0
    2.3311    5.5887   -1.7594 H   0  0  0  1  0  0  0  0  0  0  0  0
    0.6914    5.2789   -2.2769 H   0  0  0  1  0  0  0  0  0  0  0  0
    1.8428    3.9671   -2.1891 H   0  0  0  1  0  0  0  0  0  0  0  0
   -1.4036    2.7047    1.2989 C   0  0  0  1  0  0  0  0  0  0  0  0
   -2.3546    3.8068    0.9157 C   0  0  0  1  0  0  0  0  0  0  0  0
   -2.5493    4.9873    1.5702 C   0  0  0  1  0  0  0  0  0  0  0  0
   -3.5079    5.7309    0.9308 N   0  0  0  1  0  0  0  0  0  0  0  0
   -3.9412    5.0477   -0.1725 C   0  0  0  1  0  0  0  0  0  0  0  0
   -4.8894    5.3899   -1.1405 C   0  0  0  1  0  0  0  0  0  0  0  0
   -5.1295    4.4781   -2.1454 C   0  0  0  1  0  0  0  0  0  0  0  0
   -4.4599    3.2595   -2.1949 C   0  0  0  1  0  0  0  0  0  0  0  0
   -3.5208    2.9236   -1.2449 C   0  0  0  1  0  0  0  0  0  0  0  0
   -3.2429    3.8291   -0.2153 C   0  0  0  1  0  0  0  0  0  0  0  0
   -4.7346    2.3934   -3.1891 F   0  0  0  1  0  0  0  0  0  0  0  0
   -1.6636    2.3713    2.2818 H   0  0  0  1  0  0  0  0  0  0  0  0
   -1.5317    1.9016    0.6036 H   0  0  0  1  0  0  0  0  0  0  0  0
   -2.0437    5.2812    2.4302 H   0  0  0  1  0  0  0  0  0  0  0  0
   -3.8307    6.6105    1.2180 H   0  0  0  1  0  0  0  0  0  0  0  0
   -5.3947    6.2982   -1.1039 H   0  0  0  1  0  0  0  0  0  0  0  0
   -5.8266    4.7057   -2.8828 H   0  0  0  1  0  0  0  0  0  0  0  0
   -3.0256    2.0102   -1.2923 H   0  0  0  1  0  0  0  0  0  0  0  0
  1  4  1  0  0  0  0
  2  4  1  0  0  0  0
  2  5  2  0  0  0  0
  2  6  1  0  0  0  0
  3  4  1  0  0  0  0
  3  7  1  0  0  0  0
  3  8  1  0  0  0  0
  4 19  1  0  0  0  0
  6  9  1  0  0  0  0
  6 12  1  0  0  0  0
  8 10  1  0  0  0  0
  8 11  2  0  0  0  0
  9 13  1  0  0  0  0
  9 14  1  0  0  0  0
  9 15  1  0  0  0  0
 10 16  1  0  0  0  0
 10 17  1  0  0  0  0
 10 18  1  0  0  0  0
 19 20  1  0  0  0  0
 19 30  1  0  0  0  0
 19 31  1  0  0  0  0
 20 21  4  0  0  0  0
 20 28  4  0  0  0  0
 21 22  4  0  0  0  0
 21 32  1  0  0  0  0
 22 23  4  0  0  0  0
 22 33  1  0  0  0  0
 23 24  4  0  0  0  0
 23 28  4  0  0  0  0
 24 25  4  0  0  0  0
 24 34  1  0  0  0  0
 25 26  4  0  0  0  0
 25 35  1  0  0  0  0
 26 27  4  0  0  0  0
 26 29  1  0  0  0  0
 27 28  4  0  0  0  0
 27 36  1  0  0  0  0
M  END
> <BCLConfClusterSize>
1

> <ConfClashScore>
0 

> <ConfOneFourInteractionScore>
-0.937775 

> <ConfScore>
0.714887 

> <ConfScorePBest>
0.0117696 

> <ConfTolerance>
1.62812 

> <RosettaParamsInstructions>
M  ROOT 3
M  POLY_N_BB 3
M  POLY_CA_BB 4
M  POLY_C_BB 2
M  POLY_O_BB 5
M  POLY_IGNORE 9 10 11 12 13 14 15 16 17 18 
M  POLY_UPPER 6
M  POLY_LOWER 8
M  POLY_CHG 0
M  POLY_PROPERTIES ALPHA_AA L_AA PROTEIN AROMATIC POLYMER 
M  END

$$$$



 36 37  0  0  0  0  0  0  0  0999 V2000
   -1.3982    0.9698    2.5262 H   0  0  0  1  0  0  0  0  0  0  0  0
   -3.2354    1.9679    2.8662 C   0  0  0  1  0  0  0  0  0  0  0  0
   -2.6509    0.6077    0.9211 N   0  0  0  1  0  0  0  0  0  0  0  0
   -2.1175    1.5009    1.9386 C   0  0  0  1  0  0  0  0  0  0  0  0
   -3.0431    2.2224    4.0438 O   0  0  0  1  0  0  0  0  0  0  0  0
   -4.4709    2.1046    2.3765 N   0  0  0  1  0  0  0  0  0  0  0  0
   -2.7970    0.9549    0.0164 H   0  0  0  1  0  0  0  0  0  0  0  0
   -2.9512   -0.6820    1.1798 C   0  0  0  1  0  0  0  0  0  0  0  0
   -5.5961    2.5071    3.2070 C   0  0  0  1  0  0  0  0  0  0  0  0
   -3.4898   -1.5302    0.0443 C   0  0  0  1  0  0  0  0  0  0  0  0
   -2.7935   -1.1581    2.3033 O   0  0  0  1  0  0  0  0  0  0  0  0
   -4.6248    1.9277    1.4250 H   0  0  0  1  0  0  0  0  0  0  0  0
   -5.5157    2.0420    4.1672 H   0  0  0  1  0  0  0  0  0  0  0  0
   -6.5100    2.2047    2.7398 H   0  0  0  1  0  0  0  0  0  0  0  0
   -5.5900    3.5707    3.3244 H   0  0  0  1  0  0  0  0  0  0  0  0
   -3.6635   -0.9123   -0.8118 H   0  0  0  1  0  0  0  0  0  0  0  0
   -4.4088   -1.9877    0.3460 H   0  0  0  1  0  0  0  0  0  0  0  0
   -2.7772   -2.2892   -0.2027 H   0  0  0  1  0  0  0  0  0  0  0  0
   -1.4132    2.7010    1.2981 C   0  0  0  1  0  0  0  0  0  0  0  0
   -2.3611    3.8063    0.9162 C   0  0  0  1  0  0  0  0  0  0  0  0
   -2.5401    4.9935    1.5801 C   0  0  0  1  0  0  0  0  0  0  0  0
   -3.5113    5.7430    0.9339 N   0  0  0  1  0  0  0  0  0  0  0  0
   -3.9481    5.0408   -0.1718 C   0  0  0  1  0  0  0  0  0  0  0  0
   -4.8869    5.3837   -1.1395 C   0  0  0  1  0  0  0  0  0  0  0  0
   -5.1355    4.4781   -2.1453 C   0  0  0  1  0  0  0  0  0  0  0  0
   -4.4552    3.2563   -2.1991 C   0  0  0  1  0  0  0  0  0  0  0  0
   -3.5238    2.9211   -1.2499 C   0  0  0  1  0  0  0  0  0  0  0  0
   -3.2472    3.8178   -0.2091 C   0  0  0  1  0  0  0  0  0  0  0  0
   -4.7197    2.3950   -3.2002 F   0  0  0  1  0  0  0  0  0  0  0  0
   -0.9060    2.3677    0.4168 H   0  0  0  1  0  0  0  0  0  0  0  0
   -0.7003    3.0894    1.9951 H   0  0  0  1  0  0  0  0  0  0  0  0
   -2.0267    5.2861    2.4359 H   0  0  0  1  0  0  0  0  0  0  0  0
   -3.8341    6.6245    1.2151 H   0  0  0  1  0  0  0  0  0  0  0  0
   -5.3853    6.2958   -1.1038 H   0  0  0  1  0  0  0  0  0  0  0  0
   -5.8395    4.7050   -2.8765 H   0  0  0  1  0  0  0  0  0  0  0  0
   -3.0270    2.0089   -1.3020 H   0  0  0  1  0  0  0  0  0  0  0  0
  1  4  1  0  0  0  0
  2  4  1  0  0  0  0
  2  5  2  0  0  0  0
  2  6  1  0  0  0  0
  3  4  1  0  0  0  0
  3  7  1  0  0  0  0
  3  8  1  0  0  0  0
  4 19  1  0  0  0  0
  6  9  1  0  0  0  0
  6 12  1  0  0  0  0
  8 10  1  0  0  0  0
  8 11  2  0  0  0  0
  9 13  1  0  0  0  0
  9 14  1  0  0  0  0
  9 15  1  0  0  0  0
 10 16  1  0  0  0  0
 10 17  1  0  0  0  0
 10 18  1  0  0  0  0
 19 20  1  0  0  0  0
 19 30  1  0  0  0  0
 19 31  1  0  0  0  0
 20 21  4  0  0  0  0
 20 28  4  0  0  0  0
 21 22  4  0  0  0  0
 21 32  1  0  0  0  0
 22 23  4  0  0  0  0
 22 33  1  0  0  0  0
 23 24  4  0  0  0  0
 23 28  4  0  0  0  0
 24 25  4  0  0  0  0
 24 34  1  0  0  0  0
 25 26  4  0  0  0  0
 25 35  1  0  0  0  0
 26 27  4  0  0  0  0
 26 29  1  0  0  0  0
 27 28  4  0  0  0  0
 27 36  1  0  0  0  0
M  END
> <BCLConfClusterSize>
1

> <ConfClashScore>
0 

> <ConfOneFourInteractionScore>
-0.942345 

> <ConfScore>
0.736829 

> <ConfScorePBest>
0.0114038 

> <ConfTolerance>
1.43505 

> <RosettaParamsInstructions>
M  ROOT 3
M  POLY_N_BB 3
M  POLY_CA_BB 4
M  POLY_C_BB 2
M  POLY_O_BB 5
M  POLY_IGNORE 9 10 11 12 13 14 15 16 17 18 
M  POLY_UPPER 6
M  POLY_LOWER 8
M  POLY_CHG 0
M  POLY_PROPERTIES ALPHA_AA L_AA PROTEIN AROMATIC POLYMER 
M  END

$$$$



 36 37  0  0  0  0  0  0  0  0999 V2000
   -2.9956    1.8283    2.3960 H   0  0  0  1  0  0  0  0  0  0  0  0
   -2.5210    0.5007    0.8141 C   0  0  0  1  0  0  0  0  0  0  0  0
   -1.2903    0.7527    2.8572 N   0  0  0  1  0  0  0  0  0  0  0  0
   -2.1088    1.4869    1.9039 C   0  0  0  1  0  0  0  0  0  0  0  0
   -3.5234    0.7617    0.1502 O   0  0  0  1  0  0  0  0  0  0  0  0
   -1.7766   -0.5889    0.6381 N   0  0  0  1  0  0  0  0  0  0  0  0
   -0.3563    1.0211    2.9839 H   0  0  0  1  0  0  0  0  0  0  0  0
   -1.7678   -0.2745    3.5656 C   0  0  0  1  0  0  0  0  0  0  0  0
   -2.0566   -1.5610   -0.4081 C   0  0  0  1  0  0  0  0  0  0  0  0
   -0.8280   -0.8497    4.6073 C   0  0  0  1  0  0  0  0  0  0  0  0
   -2.8857   -0.7337    3.3990 O   0  0  0  1  0  0  0  0  0  0  0  0
   -1.0136   -0.7417    1.2337 H   0  0  0  1  0  0  0  0  0  0  0  0
   -3.0440   -1.9519   -0.2776 H   0  0  0  1  0  0  0  0  0  0  0  0
   -1.3468   -2.3597   -0.3518 H   0  0  0  1  0  0  0  0  0  0  0  0
   -1.9848   -1.0862   -1.3643 H   0  0  0  1  0  0  0  0  0  0  0  0
   -1.3728   -1.4997    5.2598 H   0  0  0  1  0  0  0  0  0  0  0  0
   -0.3965   -0.0531    5.1767 H   0  0  0  1  0  0  0  0  0  0  0  0
   -0.0516   -1.4022    4.1207 H   0  0  0  1  0  0  0  0  0  0  0  0
   -1.4036    2.7047    1.2989 C   0  0  0  1  0  0  0  0  0  0  0  0
   -2.3546    3.8068    0.9157 C   0  0  0  1  0  0  0  0  0  0  0  0
   -2.5493    4.9873    1.5702 C   0  0  0  1  0  0  0  0  0  0  0  0
   -3.5079    5.7309    0.9308 N   0  0  0  1  0  0  0  0  0  0  0  0
   -3.9412    5.0477   -0.1725 C   0  0  0  1  0  0  0  0  0  0  0  0
   -4.8894    5.3899   -1.1405 C   0  0  0  1  0  0  0  0  0  0  0  0
   -5.1295    4.4781   -2.1454 C   0  0  0  1  0  0  0  0  0  0  0  0
   -4.4599    3.2595   -2.1949 C   0  0  0  1  0  0  0  0  0  0  0  0
   -3.5208    2.9236   -1.2449 C   0  0  0  1  0  0  0  0  0  0  0  0
   -3.2429    3.8291   -0.2153 C   0  0  0  1  0  0  0  0  0  0  0  0
   -4.7346    2.3934   -3.1891 F   0  0  0  1  0  0  0  0  0  0  0  0
   -0.8745    2.3916    0.4231 H   0  0  0  1  0  0  0  0  0  0  0  0
   -0.7096    3.0882    2.0174 H   0  0  0  1  0  0  0  0  0  0  0  0
   -2.0437    5.2812    2.4302 H   0  0  0  1  0  0  0  0  0  0  0  0
   -3.8307    6.6105    1.2180 H   0  0  0  1  0  0  0  0  0  0  0  0
   -5.3947    6.2982   -1.1039 H   0  0  0  1  0  0  0  0  0  0  0  0
   -5.8266    4.7057   -2.8828 H   0  0  0  1  0  0  0  0  0  0  0  0
   -3.0256    2.0102   -1.2923 H   0  0  0  1  0  0  0  0  0  0  0  0
  1  4  1  0  0  0  0
  2  4  1  0  0  0  0
  2  5  2  0  0  0  0
  2  6  1  0  0  0  0
  3  4  1  0  0  0  0
  3  7  1  0  0  0  0
  3  8  1  0  0  0  0
  4 19  1  0  0  0  0
  6  9  1  0  0  0  0
  6 12  1  0  0  0  0
  8 10  1  0  0  0  0
  8 11  2  0  0  0  0
  9 13  1  0  0  0  0
  9 14  1  0  0  0  0
  9 15  1  0  0  0  0
 10 16  1  0  0  0  0
 10 17  1  0  0  0  0
 10 18  1  0  0  0  0
 19 20  1  0  0  0  0
 19 30  1  0  0  0  0
 19 31  1  0  0  0  0
 20 21  4  0  0  0  0
 20 28  4  0  0  0  0
 21 22  4  0  0  0  0
 21 32  1  0  0  0  0
 22 23  4  0  0  0  0
 22 33  1  0  0  0  0
 23 24  4  0  0  0  0
 23 28  4  0  0  0  0
 24 25  4  0  0  0  0
 24 34  1  0  0  0  0
 25 26  4  0  0  0  0
 25 35  1  0  0  0  0
 26 27  4  0  0  0  0
 26 29  1  0  0  0  0
 27 28  4  0  0  0  0
 27 36  1  0  0  0  0
M  END
> <BCLConfClusterSize>
1

> <ConfClashScore>
0.000787071 

> <ConfOneFourInteractionScore>
-0.940901 

> <ConfScore>
0.755123 

> <ConfScorePBest>
0.011038 

> <ConfTolerance>
2.6804 

> <RosettaParamsInstructions>
M  ROOT 3
M  POLY_N_BB 3
M  POLY_CA_BB 4
M  POLY_C_BB 2
M  POLY_O_BB 5
M  POLY_IGNORE 9 10 11 12 13 14 15 16 17 18 
M  POLY_UPPER 6
M  POLY_LOWER 8
M  POLY_CHG 0
M  POLY_PROPERTIES ALPHA_AA L_AA PROTEIN AROMATIC POLYMER 
M  END

$$$$
