


 36 37  0  0  0  0  0  0  0  0999 V2000
   -1.3085    0.8682    2.3497 H   0  0  0  1  0  0  0  0  0  0  0  0
   -2.5070    2.1414    3.5277 C   0  0  0  1  0  0  0  0  0  0  0  0
   -3.1350    1.0088    1.4110 N   0  0  0  1  0  0  0  0  0  0  0  0
   -2.0511    1.6172    2.1692 C   0  0  0  1  0  0  0  0  0  0  0  0
   -3.7146    2.2713    3.7187 O   0  0  0  1  0  0  0  0  0  0  0  0
   -1.5729    2.4317    4.4377 N   0  0  0  1  0  0  0  0  0  0  0  0
   -3.2439    1.2731    0.4736 H   0  0  0  1  0  0  0  0  0  0  0  0
   -4.0231    0.0794    1.9308 C   0  0  0  1  0  0  0  0  0  0  0  0
   -1.9056    2.9644    5.7505 C   0  0  0  1  0  0  0  0  0  0  0  0
   -5.0516   -0.5326    1.0251 C   0  0  0  1  0  0  0  0  0  0  0  0
   -3.9384   -0.2103    3.1093 O   0  0  0  1  0  0  0  0  0  0  0  0
   -0.6310    2.2807    4.2134 H   0  0  0  1  0  0  0  0  0  0  0  0
   -2.9251    3.2891    5.7563 H   0  0  0  1  0  0  0  0  0  0  0  0
   -1.2662    3.7935    5.9712 H   0  0  0  1  0  0  0  0  0  0  0  0
   -1.7701    2.2023    6.4892 H   0  0  0  1  0  0  0  0  0  0  0  0
   -5.9105    0.1038    0.9785 H   0  0  0  1  0  0  0  0  0  0  0  0
   -5.3379   -1.4903    1.4068 H   0  0  0  1  0  0  0  0  0  0  0  0
   -4.6396   -0.6476    0.0443 H   0  0  0  1  0  0  0  0  0  0  0  0
   -1.3904    2.7220    1.3432 C   0  0  0  1  0  0  0  0  0  0  0  0
   -2.3606    3.8027    0.9142 C   0  0  0  1  0  0  0  0  0  0  0  0
   -2.5395    4.9899    1.5782 C   0  0  0  1  0  0  0  0  0  0  0  0
   -3.5107    5.7395    0.9320 N   0  0  0  1  0  0  0  0  0  0  0  0
   -3.9476    5.0374   -0.1737 C   0  0  0  1  0  0  0  0  0  0  0  0
   -4.8864    5.3804   -1.1413 C   0  0  0  1  0  0  0  0  0  0  0  0
   -5.1351    4.4749   -2.1472 C   0  0  0  1  0  0  0  0  0  0  0  0
   -4.4549    3.2531   -2.2011 C   0  0  0  1  0  0  0  0  0  0  0  0
   -3.5235    2.9177   -1.2519 C   0  0  0  1  0  0  0  0  0  0  0  0
   -3.2467    3.8144   -0.2111 C   0  0  0  1  0  0  0  0  0  0  0  0
   -4.7495    2.4215   -3.2187 F   0  0  0  1  0  0  0  0  0  0  0  0
   -0.9615    2.2821    0.4672 H   0  0  0  1  0  0  0  0  0  0  0  0
   -0.6182    3.1717    1.9317 H   0  0  0  1  0  0  0  0  0  0  0  0
   -2.0260    5.2823    2.4340 H   0  0  0  1  0  0  0  0  0  0  0  0
   -3.8333    6.6211    1.2134 H   0  0  0  1  0  0  0  0  0  0  0  0
   -5.3847    6.2926   -1.1055 H   0  0  0  1  0  0  0  0  0  0  0  0
   -5.8391    4.7019   -2.8783 H   0  0  0  1  0  0  0  0  0  0  0  0
   -3.0268    2.0054   -1.3041 H   0  0  0  1  0  0  0  0  0  0  0  0
  1  4  1  0  0  0  0
  2  4  1  0  0  0  0
  2  5  2  0  0  0  0
  2  6  1  0  0  0  0
  3  4  1  0  0  0  0
  3  7  1  0  0  0  0
  3  8  1  0  0  0  0
  4 19  1  0  0  0  0
  6  9  1  0  0  0  0
  6 12  1  0  0  0  0
  8 10  1  0  0  0  0
  8 11  2  0  0  0  0
  9 13  1  0  0  0  0
  9 14  1  0  0  0  0
  9 15  1  0  0  0  0
 10 16  1  0  0  0  0
 10 17  1  0  0  0  0
 10 18  1  0  0  0  0
 19 20  1  0  0  0  0
 19 30  1  0  0  0  0
 19 31  1  0  0  0  0
 20 21  4  0  0  0  0
 20 28  4  0  0  0  0
 21 22  4  0  0  0  0
 21 32  1  0  0  0  0
 22 23  4  0  0  0  0
 22 33  1  0  0  0  0
 23 24  4  0  0  0  0
 23 28  4  0  0  0  0
 24 25  4  0  0  0  0
 24 34  1  0  0  0  0
 25 26  4  0  0  0  0
 25 35  1  0  0  0  0
 26 27  4  0  0  0  0
 26 29  1  0  0  0  0
 27 28  4  0  0  0  0
 27 36  1  0  0  0  0
M  END
> <BCLConfClusterSize>
1

> <ConfClashScore>
0 

> <ConfOneFourInteractionScore>
-0.976093 

> <ConfScore>
0.08487 

> <ConfScorePBest>
1 

> <RosettaParamsInstructions>
M  ROOT 3
M  POLY_N_BB 3
M  POLY_CA_BB 4
M  POLY_C_BB 2
M  POLY_O_BB 5
M  POLY_IGNORE 9 10 11 12 13 14 15 16 17 18 
M  POLY_UPPER 6
M  POLY_LOWER 8
M  POLY_CHG 0
M  POLY_PROPERTIES ALPHA_AA L_AA PROTEIN AROMATIC POLYMER 
M  END

$$$$
