908846-88-8.MOL
  Mrv2113 09172210002D

 54 58  0  0  0  0  0  0  0  0999 V2000
    5.6221    0.6842    0.8191 C   0  0  0  1  0  0  0  0  0  0  0  0
    3.5495   -0.6056    1.1254 N   0  0  0  1  0  0  0  0  0  0  0  0
    4.8027   -0.2064    1.7484 C   0  0  0  1  0  0  0  0  0  0  0  0
    5.5689   -1.4690    2.1548 C   0  0  0  1  0  0  0  0  0  0  0  0
    4.8162   -2.3246    3.1383 C   0  0  0  1  0  0  0  0  0  0  0  0
    4.0350   -3.3977    2.7910 C   0  0  0  1  0  0  0  0  0  0  0  0
    3.4737   -3.9499    3.9325 N   0  0  0  1  0  0  0  0  0  0  0  0
    3.9153   -3.2384    5.0304 C   0  0  0  1  0  0  0  0  0  0  0  0
    3.6526   -3.4225    6.3840 C   0  0  0  1  0  0  0  0  0  0  0  0
    4.2302   -2.5491    7.2769 C   0  0  0  1  0  0  0  0  0  0  0  0
    5.0657   -1.5164    6.8366 C   0  0  0  1  0  0  0  0  0  0  0  0
    5.3314   -1.3392    5.5028 C   0  0  0  1  0  0  0  0  0  0  0  0
    4.7580   -2.2082    4.5646 C   0  0  0  1  0  0  0  0  0  0  0  0
    5.1937    0.8873   -0.3237 O   0  0  0  1  0  0  0  0  0  0  0  0
    6.6925    1.1540    1.2943 O   0  0  0  1  0  0  0  0  0  0  0  0
    5.6387   -0.6602    7.7041 F   0  0  0  1  0  0  0  0  0  0  0  0
    2.3155   -0.0756    1.4271 C   0  0  0  1  0  0  0  0  0  0  0  0
    2.1556    0.7388    2.3213 O   0  0  0  1  0  0  0  0  0  0  0  0
    1.3497   -0.5720    0.6181 O   0  0  0  1  0  0  0  0  0  0  0  0
   -0.0058   -0.1075    0.8421 C   0  0  0  1  0  0  0  0  0  0  0  0
   -0.9459   -0.6583   -0.2377 C   0  0  0  1  0  0  0  0  0  0  0  0
   -2.3694   -0.1174   -0.1307 C   0  0  0  1  0  0  0  0  0  0  0  0
   -2.7820    1.2013   -0.1560 C   0  0  0  1  0  0  0  0  0  0  0  0
   -4.1466    1.4639   -0.0502 C   0  0  0  1  0  0  0  0  0  0  0  0
   -5.0589    0.4296    0.0558 C   0  0  0  1  0  0  0  0  0  0  0  0
   -4.6464   -0.8940    0.0666 C   0  0  0  1  0  0  0  0  0  0  0  0
   -3.2854   -1.1613   -0.0185 C   0  0  0  1  0  0  0  0  0  0  0  0
   -2.5507   -2.4373   -0.0149 C   0  0  0  1  0  0  0  0  0  0  0  0
   -2.9947   -3.7481    0.0897 C   0  0  0  1  0  0  0  0  0  0  0  0
   -2.0575   -4.7697    0.0669 C   0  0  0  1  0  0  0  0  0  0  0  0
   -0.7074   -4.4968   -0.0567 C   0  0  0  1  0  0  0  0  0  0  0  0
   -0.2515   -3.1860   -0.1639 C   0  0  0  1  0  0  0  0  0  0  0  0
   -1.1823   -2.1679   -0.1403 C   0  0  0  1  0  0  0  0  0  0  0  0
    3.5870   -1.3046    0.4395 H   0  0  0  1  0  0  0  0  0  0  0  0
    4.5877    0.3500    2.6367 H   0  0  0  1  0  0  0  0  0  0  0  0
    6.4972   -1.1759    2.5989 H   0  0  0  1  0  0  0  0  0  0  0  0
    5.7607   -2.0486    1.2760 H   0  0  0  1  0  0  0  0  0  0  0  0
    3.8867   -3.7435    1.8215 H   0  0  0  1  0  0  0  0  0  0  0  0
    2.8649   -4.7175    3.9560 H   0  0  0  1  0  0  0  0  0  0  0  0
    3.0389   -4.1959    6.7109 H   0  0  0  1  0  0  0  0  0  0  0  0
    4.0430   -2.6581    8.2941 H   0  0  0  1  0  0  0  0  0  0  0  0
    5.9532   -0.5663    5.1902 H   0  0  0  1  0  0  0  0  0  0  0  0
    7.4156    0.5486    1.1150 H   0  0  0  1  0  0  0  0  0  0  0  0
   -0.0214    0.9619    0.8107 H   0  0  0  1  0  0  0  0  0  0  0  0
   -0.3385   -0.4415    1.8026 H   0  0  0  1  0  0  0  0  0  0  0  0
   -0.5493   -0.4242   -1.2035 H   0  0  0  1  0  0  0  0  0  0  0  0
   -2.0940    1.9753   -0.2511 H   0  0  0  1  0  0  0  0  0  0  0  0
   -4.4826    2.4481   -0.0511 H   0  0  0  1  0  0  0  0  0  0  0  0
   -6.0729    0.6489    0.1288 H   0  0  0  1  0  0  0  0  0  0  0  0
   -5.3382   -1.6674    0.1365 H   0  0  0  1  0  0  0  0  0  0  0  0
   -4.0086   -3.9596    0.1832 H   0  0  0  1  0  0  0  0  0  0  0  0
   -2.3749   -5.7570    0.1441 H   0  0  0  1  0  0  0  0  0  0  0  0
   -0.0241   -5.2808   -0.0697 H   0  0  0  1  0  0  0  0  0  0  0  0
    0.7633   -2.9797   -0.2593 H   0  0  0  1  0  0  0  0  0  0  0  0
  1  3  1  0  0  0  0
  1 14  2  0  0  0  0
  1 15  1  0  0  0  0
  2  3  1  0  0  0  0
  2 17  1  0  0  0  0
  2 34  1  0  0  0  0
  3  4  1  0  0  0  0
  3 35  1  0  0  0  0
  4  5  1  0  0  0  0
  4 36  1  0  0  0  0
  4 37  1  0  0  0  0
  5  6  4  0  0  0  0
  5 13  4  0  0  0  0
  6  7  4  0  0  0  0
  6 38  1  0  0  0  0
  7  8  4  0  0  0  0
  7 39  1  0  0  0  0
  8  9  4  0  0  0  0
  8 13  4  0  0  0  0
  9 10  4  0  0  0  0
  9 40  1  0  0  0  0
 10 11  4  0  0  0  0
 10 41  1  0  0  0  0
 11 12  4  0  0  0  0
 11 16  1  0  0  0  0
 12 13  4  0  0  0  0
 12 42  1  0  0  0  0
 15 43  1  0  0  0  0
 17 18  2  0  0  0  0
 17 19  1  0  0  0  0
 19 20  1  0  0  0  0
 20 21  1  0  0  0  0
 20 44  1  0  0  0  0
 20 45  1  0  0  0  0
 21 22  1  0  0  0  0
 21 33  1  0  0  0  0
 21 46  1  0  0  0  0
 22 23  4  0  0  0  0
 22 27  4  0  0  0  0
 23 24  4  0  0  0  0
 23 47  1  0  0  0  0
 24 25  4  0  0  0  0
 24 48  1  0  0  0  0
 25 26  4  0  0  0  0
 25 49  1  0  0  0  0
 26 27  4  0  0  0  0
 26 50  1  0  0  0  0
 27 28  1  0  0  0  0
 28 29  4  0  0  0  0
 28 33  4  0  0  0  0
 29 30  4  0  0  0  0
 29 51  1  0  0  0  0
 30 31  4  0  0  0  0
 30 52  1  0  0  0  0
 31 32  4  0  0  0  0
 31 53  1  0  0  0  0
 32 33  4  0  0  0  0
 32 54  1  0  0  0  0
M  END
> <ConfClashScore>
0 

> <ConfOneFourInteractionScore>
-0.978248 

> <ConfScore>
-0.343374 

> <ConfScorePBest>
nan 

> <ConfTolerance>
3.22802 

$$$$
