5F-TRP.3D.capped.mmff94s.pdb
 OpenBabel09172212003D

 36 37  0  0  0  0  0  0  0  0999 V2000
    5.7360    0.3950    0.8420 C   0  0  0  1  0  0  0  0  0  0  0  0
    3.5470   -0.5830    1.1460 N   0  0  0  1  0  0  0  0  0  0  0  0
    4.8360   -0.3940    1.8060 C   0  0  0  1  0  0  0  0  0  0  0  0
    5.5360   -1.7240    2.1180 C   0  0  0  1  0  0  0  0  0  0  0  0
    4.8060   -2.5530    3.1320 C   0  0  0  1  0  0  0  0  0  0  0  0
    4.0290   -3.6650    2.8700 C   0  0  0  1  0  0  0  0  0  0  0  0
    3.5310   -4.1320    4.0560 N   0  0  0  1  0  0  0  0  0  0  0  0
    3.9730   -3.3520    5.0980 C   0  0  0  1  0  0  0  0  0  0  0  0
    3.7180   -3.4580    6.4720 C   0  0  0  1  0  0  0  0  0  0  0  0
    4.3090   -2.5110    7.3120 C   0  0  0  1  0  0  0  0  0  0  0  0
    5.1160   -1.5100    6.7870 C   0  0  0  1  0  0  0  0  0  0  0  0
    5.3660   -1.4110    5.4180 C   0  0  0  1  0  0  0  0  0  0  0  0
    4.7800   -2.3530    4.5500 C   0  0  0  1  0  0  0  0  0  0  0  0
    5.8450    0.0950   -0.3460 O   0  0  0  1  0  0  0  0  0  0  0  0
    5.6730   -0.6160    7.6160 F   0  0  0  1  0  0  0  0  0  0  0  0
    2.4700    0.2180    1.4250 C   0  0  0  1  0  0  0  0  0  0  0  0
    2.4890    1.1110    2.2670 O   0  0  0  1  0  0  0  0  0  0  0  0
    1.2330   -0.1090    0.6330 C   0  0  0  1  0  0  0  0  0  0  0  0
    6.4410    1.4260    1.4250 N   0  0  0  1  0  0  0  0  0  0  0  0
    7.3540    2.2310    0.6550 C   0  0  0  1  0  0  0  0  0  0  0  0
    3.5270   -1.1840    0.3320 H   0  0  0  1  0  0  0  0  0  0  0  0
    4.6900    0.1840    2.7250 H   0  0  0  1  0  0  0  0  0  0  0  0
    6.5510   -1.5300    2.4880 H   0  0  0  1  0  0  0  0  0  0  0  0
    5.6600   -2.3090    1.1960 H   0  0  0  1  0  0  0  0  0  0  0  0
    3.7850   -4.1600    1.9390 H   0  0  0  1  0  0  0  0  0  0  0  0
    2.9260   -4.9350    4.1580 H   0  0  0  1  0  0  0  0  0  0  0  0
    3.0850   -4.2420    6.8750 H   0  0  0  1  0  0  0  0  0  0  0  0
    4.1410   -2.5490    8.3840 H   0  0  0  1  0  0  0  0  0  0  0  0
    6.0020   -0.6150    5.0470 H   0  0  0  1  0  0  0  0  0  0  0  0
    0.5210   -0.6260    1.2830 H   0  0  0  1  0  0  0  0  0  0  0  0
    1.4580   -0.7490   -0.2240 H   0  0  0  1  0  0  0  0  0  0  0  0
    0.7860    0.8190    0.2660 H   0  0  0  1  0  0  0  0  0  0  0  0
    6.2270    1.7050    2.3750 H   0  0  0  1  0  0  0  0  0  0  0  0
    8.0510    1.5840    0.1160 H   0  0  0  1  0  0  0  0  0  0  0  0
    7.9040    2.8860    1.3350 H   0  0  0  1  0  0  0  0  0  0  0  0
    6.7850    2.8290   -0.0610 H   0  0  0  1  0  0  0  0  0  0  0  0
  1  3  1  0  0  0  0
  1 14  2  0  0  0  0
  1 19  1  0  0  0  0
  2  3  1  0  0  0  0
  2 16  1  0  0  0  0
  2 21  1  0  0  0  0
  3  4  1  0  0  0  0
  3 22  1  0  0  0  0
  4  5  1  0  0  0  0
  4 23  1  0  0  0  0
  4 24  1  0  0  0  0
  5  6  4  0  0  0  0
  5 13  4  0  0  0  0
  6  7  4  0  0  0  0
  6 25  1  0  0  0  0
  7  8  4  0  0  0  0
  7 26  1  0  0  0  0
  8  9  4  0  0  0  0
  8 13  4  0  0  0  0
  9 10  4  0  0  0  0
  9 27  1  0  0  0  0
 10 11  4  0  0  0  0
 10 28  1  0  0  0  0
 11 12  4  0  0  0  0
 11 15  1  0  0  0  0
 12 13  4  0  0  0  0
 12 29  1  0  0  0  0
 16 17  2  0  0  0  0
 16 18  1  0  0  0  0
 18 30  1  0  0  0  0
 18 31  1  0  0  0  0
 18 32  1  0  0  0  0
 19 20  1  0  0  0  0
 19 33  1  0  0  0  0
 20 34  1  0  0  0  0
 20 35  1  0  0  0  0
 20 36  1  0  0  0  0
M  ROOT 2
M  POLY_N_BB 2
M  POLY_CA_BB 3
M  POLY_C_BB 1
M  POLY_O_BB 14
M  POLY_IGNORE 17 18 30 31 32 33 20 34 35 36
M  POLY_UPPER 19
M  POLY_LOWER 16
M  POLY_PROPERTIES PROTEIN L_AA AROMATIC
M  END
$$$$
5F-TRP.3D.capped.mmff94s.pdb
 OpenBabel09172212003D

 36 37  0  0  0  0  0  0  0  0999 V2000
    7.6485   -1.3802    0.8098 C   0  0  0  1  0  0  0  0  0  0  0  0
    7.7049   -1.9581    3.2135 N   0  0  0  1  0  0  0  0  0  0  0  0
    6.9972   -2.1326    1.9538 C   0  0  0  1  0  0  0  0  0  0  0  0
    5.5286   -1.7292    2.1175 C   0  0  0  1  0  0  0  0  0  0  0  0
    4.7955   -2.5670    3.1355 C   0  0  0  1  0  0  0  0  0  0  0  0
    4.0168   -3.6792    2.8794 C   0  0  0  1  0  0  0  0  0  0  0  0
    3.5214   -4.1416    4.0683 N   0  0  0  1  0  0  0  0  0  0  0  0
    3.9667   -3.3584    5.1065 C   0  0  0  1  0  0  0  0  0  0  0  0
    3.7151   -3.4593    6.4815 C   0  0  0  1  0  0  0  0  0  0  0  0
    4.3091   -2.5099    7.3166 C   0  0  0  1  0  0  0  0  0  0  0  0
    5.1157   -1.5115    6.7861 C   0  0  0  1  0  0  0  0  0  0  0  0
    5.3623   -1.4175    5.4161 C   0  0  0  1  0  0  0  0  0  0  0  0
    4.7732   -2.3620    4.5529 C   0  0  0  1  0  0  0  0  0  0  0  0
    7.7047   -1.8578   -0.3115 O   0  0  0  1  0  0  0  0  0  0  0  0
    5.6746   -0.6100    7.6161 F   0  0  0  1  0  0  0  0  0  0  0  0
    9.0201   -2.1633    3.3275 C   0  0  0  1  0  0  0  0  0  0  0  0
    9.7429   -2.4464    2.3731 O   0  0  0  1  0  0  0  0  0  0  0  0
    9.6042   -2.1318    4.7456 C   0  0  0  1  0  0  0  0  0  0  0  0
    8.1468   -0.1786    1.1144 N   0  0  0  1  0  0  0  0  0  0  0  0
    8.8071    0.6193    0.0921 C   0  0  0  1  0  0  0  0  0  0  0  0
    7.1991   -1.6804    4.0056 H   0  0  0  1  0  0  0  0  0  0  0  0
    7.0140   -3.1728    1.7034 H   0  0  0  1  0  0  0  0  0  0  0  0
    5.0387   -1.8360    1.1722 H   0  0  0  1  0  0  0  0  0  0  0  0
    5.4890   -0.7056    2.4267 H   0  0  0  1  0  0  0  0  0  0  0  0
    3.8377   -4.0943    1.9428 H   0  0  0  1  0  0  0  0  0  0  0  0
    2.9334   -4.9196    4.1657 H   0  0  0  1  0  0  0  0  0  0  0  0
    3.1092   -4.2123    6.8655 H   0  0  0  1  0  0  0  0  0  0  0  0
    4.1462   -2.5510    8.3429 H   0  0  0  1  0  0  0  0  0  0  0  0
    5.9706   -0.6631    5.0387 H   0  0  0  1  0  0  0  0  0  0  0  0
    9.1201   -2.8719    5.3478 H   0  0  0  1  0  0  0  0  0  0  0  0
    9.4465   -1.1643    5.1746 H   0  0  0  1  0  0  0  0  0  0  0  0
   10.6535   -2.3371    4.7035 H   0  0  0  1  0  0  0  0  0  0  0  0
    8.0674    0.1663    2.0283 H   0  0  0  1  0  0  0  0  0  0  0  0
    8.4913    0.2914   -0.8763 H   0  0  0  1  0  0  0  0  0  0  0  0
    9.8673    0.5036    0.1792 H   0  0  0  1  0  0  0  0  0  0  0  0
    8.5484    1.6494    0.2215 H   0  0  0  1  0  0  0  0  0  0  0  0
  1  3  1  0  0  0  0
  1 14  2  0  0  0  0
  1 19  1  0  0  0  0
  2  3  1  0  0  0  0
  2 16  1  0  0  0  0
  2 21  1  0  0  0  0
  3  4  1  0  0  0  0
  3 22  1  0  0  0  0
  4  5  1  0  0  0  0
  4 23  1  0  0  0  0
  4 24  1  0  0  0  0
  5  6  4  0  0  0  0
  5 13  4  0  0  0  0
  6  7  4  0  0  0  0
  6 25  1  0  0  0  0
  7  8  4  0  0  0  0
  7 26  1  0  0  0  0
  8  9  4  0  0  0  0
  8 13  4  0  0  0  0
  9 10  4  0  0  0  0
  9 27  1  0  0  0  0
 10 11  4  0  0  0  0
 10 28  1  0  0  0  0
 11 12  4  0  0  0  0
 11 15  1  0  0  0  0
 12 13  4  0  0  0  0
 12 29  1  0  0  0  0
 16 17  2  0  0  0  0
 16 18  1  0  0  0  0
 18 30  1  0  0  0  0
 18 31  1  0  0  0  0
 18 32  1  0  0  0  0
 19 20  1  0  0  0  0
 19 33  1  0  0  0  0
 20 34  1  0  0  0  0
 20 35  1  0  0  0  0
 20 36  1  0  0  0  0
M  END
> <ConfClashScore>
0 

> <ConfOneFourInteractionScore>
-0.956443 

> <ConfScore>
0.348212 

> <ConfScorePBest>
0.0150985 

> <ConfTolerance>
0.25 

$$$$
5F-TRP.3D.capped.mmff94s.pdb
 OpenBabel09172212003D

 36 37  0  0  0  0  0  0  0  0999 V2000
    7.6295   -1.5995    0.6668 C   0  0  0  1  0  0  0  0  0  0  0  0
    7.6882   -2.6610    2.8442 N   0  0  0  1  0  0  0  0  0  0  0  0
    6.8366   -2.4015    1.6929 C   0  0  0  1  0  0  0  0  0  0  0  0
    5.5318   -1.7255    2.1126 C   0  0  0  1  0  0  0  0  0  0  0  0
    4.7951   -2.5675    3.1358 C   0  0  0  1  0  0  0  0  0  0  0  0
    4.0164   -3.6797    2.8798 C   0  0  0  1  0  0  0  0  0  0  0  0
    3.5211   -4.1419    4.0688 N   0  0  0  1  0  0  0  0  0  0  0  0
    3.9665   -3.3586    5.1068 C   0  0  0  1  0  0  0  0  0  0  0  0
    3.7149   -3.4594    6.4819 C   0  0  0  1  0  0  0  0  0  0  0  0
    4.3090   -2.5100    7.3169 C   0  0  0  1  0  0  0  0  0  0  0  0
    5.1156   -1.5116    6.7862 C   0  0  0  1  0  0  0  0  0  0  0  0
    5.3621   -1.4178    5.4163 C   0  0  0  1  0  0  0  0  0  0  0  0
    4.7730   -2.3623    4.5532 C   0  0  0  1  0  0  0  0  0  0  0  0
    7.3021   -1.6264   -0.5166 O   0  0  0  1  0  0  0  0  0  0  0  0
    5.6746   -0.6101    7.6162 F   0  0  0  1  0  0  0  0  0  0  0  0
    8.7752   -3.4568    2.7718 C   0  0  0  1  0  0  0  0  0  0  0  0
    9.1632   -3.9061    1.6942 O   0  0  0  1  0  0  0  0  0  0  0  0
    9.5071   -3.7828    4.0591 C   0  0  0  1  0  0  0  0  0  0  0  0
    8.6117   -0.8250    1.1364 N   0  0  0  1  0  0  0  0  0  0  0  0
    9.5094   -0.0898    0.2581 C   0  0  0  1  0  0  0  0  0  0  0  0
    7.4642   -2.2431    3.7019 H   0  0  0  1  0  0  0  0  0  0  0  0
    6.5828   -3.3385    1.2430 H   0  0  0  1  0  0  0  0  0  0  0  0
    4.9104   -1.5971    1.2510 H   0  0  0  1  0  0  0  0  0  0  0  0
    5.7534   -0.7694    2.5389 H   0  0  0  1  0  0  0  0  0  0  0  0
    3.8373   -4.0948    1.9433 H   0  0  0  1  0  0  0  0  0  0  0  0
    2.9331   -4.9199    4.1662 H   0  0  0  1  0  0  0  0  0  0  0  0
    3.1091   -4.2124    6.8660 H   0  0  0  1  0  0  0  0  0  0  0  0
    4.1461   -2.5510    8.3433 H   0  0  0  1  0  0  0  0  0  0  0  0
    5.9704   -0.6634    5.0387 H   0  0  0  1  0  0  0  0  0  0  0  0
   10.0640   -2.9273    4.3798 H   0  0  0  1  0  0  0  0  0  0  0  0
   10.1758   -4.6011    3.8915 H   0  0  0  1  0  0  0  0  0  0  0  0
    8.7979   -4.0500    4.8144 H   0  0  0  1  0  0  0  0  0  0  0  0
    8.7318   -0.7494    2.1061 H   0  0  0  1  0  0  0  0  0  0  0  0
    8.9710    0.2451   -0.6038 H   0  0  0  1  0  0  0  0  0  0  0  0
   10.3108   -0.7291   -0.0485 H   0  0  0  1  0  0  0  0  0  0  0  0
    9.9066    0.7552    0.7807 H   0  0  0  1  0  0  0  0  0  0  0  0
  1  3  1  0  0  0  0
  1 14  2  0  0  0  0
  1 19  1  0  0  0  0
  2  3  1  0  0  0  0
  2 16  1  0  0  0  0
  2 21  1  0  0  0  0
  3  4  1  0  0  0  0
  3 22  1  0  0  0  0
  4  5  1  0  0  0  0
  4 23  1  0  0  0  0
  4 24  1  0  0  0  0
  5  6  4  0  0  0  0
  5 13  4  0  0  0  0
  6  7  4  0  0  0  0
  6 25  1  0  0  0  0
  7  8  4  0  0  0  0
  7 26  1  0  0  0  0
  8  9  4  0  0  0  0
  8 13  4  0  0  0  0
  9 10  4  0  0  0  0
  9 27  1  0  0  0  0
 10 11  4  0  0  0  0
 10 28  1  0  0  0  0
 11 12  4  0  0  0  0
 11 15  1  0  0  0  0
 12 13  4  0  0  0  0
 12 29  1  0  0  0  0
 16 17  2  0  0  0  0
 16 18  1  0  0  0  0
 18 30  1  0  0  0  0
 18 31  1  0  0  0  0
 18 32  1  0  0  0  0
 19 20  1  0  0  0  0
 19 33  1  0  0  0  0
 20 34  1  0  0  0  0
 20 35  1  0  0  0  0
 20 36  1  0  0  0  0
M  END
> <ConfClashScore>
0 

> <ConfOneFourInteractionScore>
-0.937775 

> <ConfScore>
0.349314 

> <ConfScorePBest>
0.0149955 

> <ConfTolerance>
0.25 

$$$$
5F-TRP.3D.capped.mmff94s.pdb
 OpenBabel09172212003D

 36 37  0  0  0  0  0  0  0  0999 V2000
    7.4784   -1.4692    0.5366 C   0  0  0  1  0  0  0  0  0  0  0  0
    7.8394   -2.3232    2.7929 N   0  0  0  1  0  0  0  0  0  0  0  0
    6.9054   -2.2937    1.6773 C   0  0  0  1  0  0  0  0  0  0  0  0
    5.5497   -1.7367    2.1147 C   0  0  0  1  0  0  0  0  0  0  0  0
    4.8051   -2.5695    3.1398 C   0  0  0  1  0  0  0  0  0  0  0  0
    4.0263   -3.6629    2.8994 C   0  0  0  1  0  0  0  0  0  0  0  0
    3.5055   -4.1409    4.0746 N   0  0  0  1  0  0  0  0  0  0  0  0
    3.9586   -3.3705    5.1103 C   0  0  0  1  0  0  0  0  0  0  0  0
    3.7217   -3.4625    6.4846 C   0  0  0  1  0  0  0  0  0  0  0  0
    4.3138   -2.5195    7.2963 C   0  0  0  1  0  0  0  0  0  0  0  0
    5.1132   -1.5089    6.7712 C   0  0  0  1  0  0  0  0  0  0  0  0
    5.3523   -1.4206    5.4176 C   0  0  0  1  0  0  0  0  0  0  0  0
    4.7763   -2.3671    4.5634 C   0  0  0  1  0  0  0  0  0  0  0  0
    7.2747   -1.7854   -0.6348 O   0  0  0  1  0  0  0  0  0  0  0  0
    5.6626   -0.6014    7.6009 F   0  0  0  1  0  0  0  0  0  0  0  0
    9.1367   -2.5985    2.6305 C   0  0  0  1  0  0  0  0  0  0  0  0
    9.6449   -2.8048    1.5292 O   0  0  0  1  0  0  0  0  0  0  0  0
    9.9644   -2.6439    3.9001 C   0  0  0  1  0  0  0  0  0  0  0  0
    8.2113   -0.3886    0.8455 N   0  0  0  1  0  0  0  0  0  0  0  0
    8.7057    0.5310   -0.1683 C   0  0  0  1  0  0  0  0  0  0  0  0
    7.5052   -2.1345    3.6946 H   0  0  0  1  0  0  0  0  0  0  0  0
    6.7544   -3.2921    1.3235 H   0  0  0  1  0  0  0  0  0  0  0  0
    4.9313   -1.6527    1.2455 H   0  0  0  1  0  0  0  0  0  0  0  0
    5.7114   -0.7653    2.5332 H   0  0  0  1  0  0  0  0  0  0  0  0
    3.8525   -4.0749    1.9605 H   0  0  0  1  0  0  0  0  0  0  0  0
    2.9050   -4.9108    4.1589 H   0  0  0  1  0  0  0  0  0  0  0  0
    3.1213   -4.2142    6.8797 H   0  0  0  1  0  0  0  0  0  0  0  0
    4.1598   -2.5640    8.3239 H   0  0  0  1  0  0  0  0  0  0  0  0
    5.9522   -0.6615    5.0362 H   0  0  0  1  0  0  0  0  0  0  0  0
   10.0631   -1.6555    4.2977 H   0  0  0  1  0  0  0  0  0  0  0  0
   10.9344   -3.0378    3.6793 H   0  0  0  1  0  0  0  0  0  0  0  0
    9.4797   -3.2706    4.6193 H   0  0  0  1  0  0  0  0  0  0  0  0
    8.4210   -0.2125    1.7864 H   0  0  0  1  0  0  0  0  0  0  0  0
    8.6497    0.0660   -1.1303 H   0  0  0  1  0  0  0  0  0  0  0  0
    9.7228    0.7848    0.0463 H   0  0  0  1  0  0  0  0  0  0  0  0
    8.1081    1.4186   -0.1662 H   0  0  0  1  0  0  0  0  0  0  0  0
  1  3  1  0  0  0  0
  1 14  2  0  0  0  0
  1 19  1  0  0  0  0
  2  3  1  0  0  0  0
  2 16  1  0  0  0  0
  2 21  1  0  0  0  0
  3  4  1  0  0  0  0
  3 22  1  0  0  0  0
  4  5  1  0  0  0  0
  4 23  1  0  0  0  0
  4 24  1  0  0  0  0
  5  6  4  0  0  0  0
  5 13  4  0  0  0  0
  6  7  4  0  0  0  0
  6 25  1  0  0  0  0
  7  8  4  0  0  0  0
  7 26  1  0  0  0  0
  8  9  4  0  0  0  0
  8 13  4  0  0  0  0
  9 10  4  0  0  0  0
  9 27  1  0  0  0  0
 10 11  4  0  0  0  0
 10 28  1  0  0  0  0
 11 12  4  0  0  0  0
 11 15  1  0  0  0  0
 12 13  4  0  0  0  0
 12 29  1  0  0  0  0
 16 17  2  0  0  0  0
 16 18  1  0  0  0  0
 18 30  1  0  0  0  0
 18 31  1  0  0  0  0
 18 32  1  0  0  0  0
 19 20  1  0  0  0  0
 19 33  1  0  0  0  0
 20 34  1  0  0  0  0
 20 35  1  0  0  0  0
 20 36  1  0  0  0  0
M  END
> <ConfClashScore>
0 

> <ConfOneFourInteractionScore>
-0.956443 

> <ConfScore>
0.350116 

> <ConfScorePBest>
0.0148925 

> <ConfTolerance>
0.384334 

$$$$
5F-TRP.3D.capped.mmff94s.pdb
 OpenBabel09172212003D

 36 37  0  0  0  0  0  0  0  0999 V2000
    5.3338   -0.0086    0.3395 C   0  0  0  1  0  0  0  0  0  0  0  0
    3.4667   -1.5250    0.8202 N   0  0  0  1  0  0  0  0  0  0  0  0
    4.5668   -0.7769    1.4102 C   0  0  0  1  0  0  0  0  0  0  0  0
    5.5271   -1.7308    2.1196 C   0  0  0  1  0  0  0  0  0  0  0  0
    4.7956   -2.5669    3.1354 C   0  0  0  1  0  0  0  0  0  0  0  0
    4.0169   -3.6791    2.8793 C   0  0  0  1  0  0  0  0  0  0  0  0
    3.5215   -4.1415    4.0681 N   0  0  0  1  0  0  0  0  0  0  0  0
    3.9668   -3.3582    5.1063 C   0  0  0  1  0  0  0  0  0  0  0  0
    3.7152   -3.4592    6.4813 C   0  0  0  1  0  0  0  0  0  0  0  0
    4.3092   -2.5098    7.3165 C   0  0  0  1  0  0  0  0  0  0  0  0
    5.1157   -1.5114    6.7860 C   0  0  0  1  0  0  0  0  0  0  0  0
    5.3624   -1.4174    5.4160 C   0  0  0  1  0  0  0  0  0  0  0  0
    4.7733   -2.3619    4.5528 C   0  0  0  1  0  0  0  0  0  0  0  0
    6.0717    0.9032    0.7036 O   0  0  0  1  0  0  0  0  0  0  0  0
    5.6747   -0.6100    7.6160 F   0  0  0  1  0  0  0  0  0  0  0  0
    2.5760   -0.9579    0.0016 C   0  0  0  1  0  0  0  0  0  0  0  0
    2.6016    0.2191   -0.3184 O   0  0  0  1  0  0  0  0  0  0  0  0
    1.5522   -1.9125   -0.5994 C   0  0  0  1  0  0  0  0  0  0  0  0
    5.1641   -0.3656   -0.9367 N   0  0  0  1  0  0  0  0  0  0  0  0
    5.7328    0.4441   -2.0038 C   0  0  0  1  0  0  0  0  0  0  0  0
    3.3760   -2.4778    1.0307 H   0  0  0  1  0  0  0  0  0  0  0  0
    4.1848   -0.0797    2.1263 H   0  0  0  1  0  0  0  0  0  0  0  0
    6.2855   -1.1611    2.6148 H   0  0  0  1  0  0  0  0  0  0  0  0
    5.9801   -2.3753    1.3955 H   0  0  0  1  0  0  0  0  0  0  0  0
    3.8379   -4.0941    1.9426 H   0  0  0  1  0  0  0  0  0  0  0  0
    2.9335   -4.9194    4.1654 H   0  0  0  1  0  0  0  0  0  0  0  0
    3.1093   -4.2123    6.8653 H   0  0  0  1  0  0  0  0  0  0  0  0
    4.1462   -2.5510    8.3428 H   0  0  0  1  0  0  0  0  0  0  0  0
    5.9707   -0.6630    5.0386 H   0  0  0  1  0  0  0  0  0  0  0  0
    1.0290   -2.4160    0.1865 H   0  0  0  1  0  0  0  0  0  0  0  0
    2.0529   -2.6323   -1.2125 H   0  0  0  1  0  0  0  0  0  0  0  0
    0.8555   -1.3595   -1.1941 H   0  0  0  1  0  0  0  0  0  0  0  0
    4.6556   -1.1745   -1.1547 H   0  0  0  1  0  0  0  0  0  0  0  0
    6.6579    0.8696   -1.6751 H   0  0  0  1  0  0  0  0  0  0  0  0
    5.0506    1.2281   -2.2586 H   0  0  0  1  0  0  0  0  0  0  0  0
    5.9081   -0.1699   -2.8624 H   0  0  0  1  0  0  0  0  0  0  0  0
  1  3  1  0  0  0  0
  1 14  2  0  0  0  0
  1 19  1  0  0  0  0
  2  3  1  0  0  0  0
  2 16  1  0  0  0  0
  2 21  1  0  0  0  0
  3  4  1  0  0  0  0
  3 22  1  0  0  0  0
  4  5  1  0  0  0  0
  4 23  1  0  0  0  0
  4 24  1  0  0  0  0
  5  6  4  0  0  0  0
  5 13  4  0  0  0  0
  6  7  4  0  0  0  0
  6 25  1  0  0  0  0
  7  8  4  0  0  0  0
  7 26  1  0  0  0  0
  8  9  4  0  0  0  0
  8 13  4  0  0  0  0
  9 10  4  0  0  0  0
  9 27  1  0  0  0  0
 10 11  4  0  0  0  0
 10 28  1  0  0  0  0
 11 12  4  0  0  0  0
 11 15  1  0  0  0  0
 12 13  4  0  0  0  0
 12 29  1  0  0  0  0
 16 17  2  0  0  0  0
 16 18  1  0  0  0  0
 18 30  1  0  0  0  0
 18 31  1  0  0  0  0
 18 32  1  0  0  0  0
 19 20  1  0  0  0  0
 19 33  1  0  0  0  0
 20 34  1  0  0  0  0
 20 35  1  0  0  0  0
 20 36  1  0  0  0  0
M  END
> <ConfClashScore>
0 

> <ConfOneFourInteractionScore>
-0.94165 

> <ConfScore>
0.35571 

> <ConfScorePBest>
0.0147895 

> <ConfTolerance>
0.298109 

$$$$
5F-TRP.3D.capped.mmff94s.pdb
 OpenBabel09172212003D

 36 37  0  0  0  0  0  0  0  0999 V2000
    5.7113    0.2229    0.6525 C   0  0  0  1  0  0  0  0  0  0  0  0
    3.5165   -0.7803    1.1183 N   0  0  0  1  0  0  0  0  0  0  0  0
    4.8159   -0.4584    1.6892 C   0  0  0  1  0  0  0  0  0  0  0  0
    5.5271   -1.7308    2.1196 C   0  0  0  1  0  0  0  0  0  0  0  0
    4.7956   -2.5669    3.1354 C   0  0  0  1  0  0  0  0  0  0  0  0
    4.0169   -3.6791    2.8793 C   0  0  0  1  0  0  0  0  0  0  0  0
    3.5215   -4.1415    4.0681 N   0  0  0  1  0  0  0  0  0  0  0  0
    3.9668   -3.3582    5.1063 C   0  0  0  1  0  0  0  0  0  0  0  0
    3.7152   -3.4592    6.4813 C   0  0  0  1  0  0  0  0  0  0  0  0
    4.3092   -2.5098    7.3165 C   0  0  0  1  0  0  0  0  0  0  0  0
    5.1157   -1.5114    6.7860 C   0  0  0  1  0  0  0  0  0  0  0  0
    5.3624   -1.4174    5.4160 C   0  0  0  1  0  0  0  0  0  0  0  0
    4.7733   -2.3619    4.5528 C   0  0  0  1  0  0  0  0  0  0  0  0
    6.6317    0.9616    0.9923 O   0  0  0  1  0  0  0  0  0  0  0  0
    5.6747   -0.6100    7.6160 F   0  0  0  1  0  0  0  0  0  0  0  0
    2.7123    0.1779    0.5203 C   0  0  0  1  0  0  0  0  0  0  0  0
    3.1094    1.3281    0.4793 O   0  0  0  1  0  0  0  0  0  0  0  0
    1.3781   -0.2385   -0.0564 C   0  0  0  1  0  0  0  0  0  0  0  0
    5.4220   -0.0412   -0.6315 N   0  0  0  1  0  0  0  0  0  0  0  0
    6.1802    0.5965   -1.6975 C   0  0  0  1  0  0  0  0  0  0  0  0
    3.1989   -1.7066    1.1580 H   0  0  0  1  0  0  0  0  0  0  0  0
    4.7017    0.1849    2.5366 H   0  0  0  1  0  0  0  0  0  0  0  0
    6.4725   -1.4551    2.5382 H   0  0  0  1  0  0  0  0  0  0  0  0
    5.6839   -2.3321    1.2485 H   0  0  0  1  0  0  0  0  0  0  0  0
    3.8379   -4.0941    1.9426 H   0  0  0  1  0  0  0  0  0  0  0  0
    2.9335   -4.9194    4.1654 H   0  0  0  1  0  0  0  0  0  0  0  0
    3.1093   -4.2123    6.8653 H   0  0  0  1  0  0  0  0  0  0  0  0
    4.1462   -2.5510    8.3428 H   0  0  0  1  0  0  0  0  0  0  0  0
    5.9707   -0.6630    5.0386 H   0  0  0  1  0  0  0  0  0  0  0  0
    1.5288   -1.0041   -0.7886 H   0  0  0  1  0  0  0  0  0  0  0  0
    0.9090    0.6064   -0.5156 H   0  0  0  1  0  0  0  0  0  0  0  0
    0.7524   -0.6126    0.7268 H   0  0  0  1  0  0  0  0  0  0  0  0
    4.6988   -0.6649   -0.8515 H   0  0  0  1  0  0  0  0  0  0  0  0
    7.1905    0.7447   -1.3778 H   0  0  0  1  0  0  0  0  0  0  0  0
    5.7384    1.5423   -1.9325 H   0  0  0  1  0  0  0  0  0  0  0  0
    6.1692   -0.0285   -2.5659 H   0  0  0  1  0  0  0  0  0  0  0  0
  1  3  1  0  0  0  0
  1 14  2  0  0  0  0
  1 19  1  0  0  0  0
  2  3  1  0  0  0  0
  2 16  1  0  0  0  0
  2 21  1  0  0  0  0
  3  4  1  0  0  0  0
  3 22  1  0  0  0  0
  4  5  1  0  0  0  0
  4 23  1  0  0  0  0
  4 24  1  0  0  0  0
  5  6  4  0  0  0  0
  5 13  4  0  0  0  0
  6  7  4  0  0  0  0
  6 25  1  0  0  0  0
  7  8  4  0  0  0  0
  7 26  1  0  0  0  0
  8  9  4  0  0  0  0
  8 13  4  0  0  0  0
  9 10  4  0  0  0  0
  9 27  1  0  0  0  0
 10 11  4  0  0  0  0
 10 28  1  0  0  0  0
 11 12  4  0  0  0  0
 11 15  1  0  0  0  0
 12 13  4  0  0  0  0
 12 29  1  0  0  0  0
 16 17  2  0  0  0  0
 16 18  1  0  0  0  0
 18 30  1  0  0  0  0
 18 31  1  0  0  0  0
 18 32  1  0  0  0  0
 19 20  1  0  0  0  0
 19 33  1  0  0  0  0
 20 34  1  0  0  0  0
 20 35  1  0  0  0  0
 20 36  1  0  0  0  0
M  END
> <ConfClashScore>
0 

> <ConfOneFourInteractionScore>
-0.960318 

> <ConfScore>
0.356812 

> <ConfScorePBest>
0.0146865 

> <ConfTolerance>
0.25 

$$$$
5F-TRP.3D.capped.mmff94s.pdb
 OpenBabel09172212003D

 36 37  0  0  0  0  0  0  0  0999 V2000
    4.7621    0.5567    2.7582 C   0  0  0  1  0  0  0  0  0  0  0  0
    5.4625    0.0599    0.4623 N   0  0  0  1  0  0  0  0  0  0  0  0
    4.8186   -0.4954    1.6434 C   0  0  0  1  0  0  0  0  0  0  0  0
    5.5449   -1.7420    2.1218 C   0  0  0  1  0  0  0  0  0  0  0  0
    4.8055   -2.5689    3.1393 C   0  0  0  1  0  0  0  0  0  0  0  0
    4.0269   -3.6623    2.8989 C   0  0  0  1  0  0  0  0  0  0  0  0
    3.5059   -4.1405    4.0739 N   0  0  0  1  0  0  0  0  0  0  0  0
    3.9589   -3.3701    5.1097 C   0  0  0  1  0  0  0  0  0  0  0  0
    3.7219   -3.4623    6.4840 C   0  0  0  1  0  0  0  0  0  0  0  0
    4.3140   -2.5193    7.2958 C   0  0  0  1  0  0  0  0  0  0  0  0
    5.1134   -1.5087    6.7710 C   0  0  0  1  0  0  0  0  0  0  0  0
    5.3526   -1.4202    5.4174 C   0  0  0  1  0  0  0  0  0  0  0  0
    4.7766   -2.3667    4.5630 C   0  0  0  1  0  0  0  0  0  0  0  0
    3.7757    0.6219    3.4898 O   0  0  0  1  0  0  0  0  0  0  0  0
    5.6627   -0.6012    7.6008 F   0  0  0  1  0  0  0  0  0  0  0  0
    4.9021    1.0291   -0.2669 C   0  0  0  1  0  0  0  0  0  0  0  0
    3.8063    1.4959   -0.0028 O   0  0  0  1  0  0  0  0  0  0  0  0
    5.7384    1.6181   -1.4033 C   0  0  0  1  0  0  0  0  0  0  0  0
    5.8522    1.3095    2.9314 N   0  0  0  1  0  0  0  0  0  0  0  0
    5.9618    2.1805    4.0921 C   0  0  0  1  0  0  0  0  0  0  0  0
    6.3376   -0.2891    0.1924 H   0  0  0  1  0  0  0  0  0  0  0  0
    3.8145   -0.7707    1.3966 H   0  0  0  1  0  0  0  0  0  0  0  0
    6.4736   -1.4364    2.5566 H   0  0  0  1  0  0  0  0  0  0  0  0
    5.7358   -2.3603    1.2697 H   0  0  0  1  0  0  0  0  0  0  0  0
    3.8531   -4.0742    1.9598 H   0  0  0  1  0  0  0  0  0  0  0  0
    2.9055   -4.9104    4.1581 H   0  0  0  1  0  0  0  0  0  0  0  0
    3.1215   -4.2141    6.8790 H   0  0  0  1  0  0  0  0  0  0  0  0
    4.1599   -2.5640    8.3234 H   0  0  0  1  0  0  0  0  0  0  0  0
    5.9526   -0.6611    5.0361 H   0  0  0  1  0  0  0  0  0  0  0  0
    6.0227    0.8385   -2.0787 H   0  0  0  1  0  0  0  0  0  0  0  0
    6.6163    2.0770   -0.9988 H   0  0  0  1  0  0  0  0  0  0  0  0
    5.1615    2.3511   -1.9275 H   0  0  0  1  0  0  0  0  0  0  0  0
    6.5794    1.2752    2.2754 H   0  0  0  1  0  0  0  0  0  0  0  0
    4.9870    2.5118    4.3834 H   0  0  0  1  0  0  0  0  0  0  0  0
    6.5674    3.0276    3.8461 H   0  0  0  1  0  0  0  0  0  0  0  0
    6.4117    1.6425    4.9002 H   0  0  0  1  0  0  0  0  0  0  0  0
  1  3  1  0  0  0  0
  1 14  2  0  0  0  0
  1 19  1  0  0  0  0
  2  3  1  0  0  0  0
  2 16  1  0  0  0  0
  2 21  1  0  0  0  0
  3  4  1  0  0  0  0
  3 22  1  0  0  0  0
  4  5  1  0  0  0  0
  4 23  1  0  0  0  0
  4 24  1  0  0  0  0
  5  6  4  0  0  0  0
  5 13  4  0  0  0  0
  6  7  4  0  0  0  0
  6 25  1  0  0  0  0
  7  8  4  0  0  0  0
  7 26  1  0  0  0  0
  8  9  4  0  0  0  0
  8 13  4  0  0  0  0
  9 10  4  0  0  0  0
  9 27  1  0  0  0  0
 10 11  4  0  0  0  0
 10 28  1  0  0  0  0
 11 12  4  0  0  0  0
 11 15  1  0  0  0  0
 12 13  4  0  0  0  0
 12 29  1  0  0  0  0
 16 17  2  0  0  0  0
 16 18  1  0  0  0  0
 18 30  1  0  0  0  0
 18 31  1  0  0  0  0
 18 32  1  0  0  0  0
 19 20  1  0  0  0  0
 19 33  1  0  0  0  0
 20 34  1  0  0  0  0
 20 35  1  0  0  0  0
 20 36  1  0  0  0  0
M  END
> <ConfClashScore>
0 

> <ConfOneFourInteractionScore>
-0.960318 

> <ConfScore>
0.383236 

> <ConfScorePBest>
0.0145835 

> <ConfTolerance>
0.350236 

$$$$
5F-TRP.3D.capped.mmff94s.pdb
 OpenBabel09172212003D

 36 37  0  0  0  0  0  0  0  0999 V2000
    3.8490    0.1049    2.2638 C   0  0  0  1  0  0  0  0  0  0  0  0
    5.3908   -0.0235    0.3725 N   0  0  0  1  0  0  0  0  0  0  0  0
    4.6277   -0.8128    1.3260 C   0  0  0  1  0  0  0  0  0  0  0  0
    5.5443   -1.7426    2.1227 C   0  0  0  1  0  0  0  0  0  0  0  0
    4.8056   -2.5689    3.1393 C   0  0  0  1  0  0  0  0  0  0  0  0
    4.0269   -3.6622    2.8988 C   0  0  0  1  0  0  0  0  0  0  0  0
    3.5059   -4.1404    4.0738 N   0  0  0  1  0  0  0  0  0  0  0  0
    3.9590   -3.3701    5.1097 C   0  0  0  1  0  0  0  0  0  0  0  0
    3.7220   -3.4623    6.4840 C   0  0  0  1  0  0  0  0  0  0  0  0
    4.3140   -2.5193    7.2958 C   0  0  0  1  0  0  0  0  0  0  0  0
    5.1134   -1.5087    6.7709 C   0  0  0  1  0  0  0  0  0  0  0  0
    5.3527   -1.4202    5.4173 C   0  0  0  1  0  0  0  0  0  0  0  0
    4.7767   -2.3666    4.5630 C   0  0  0  1  0  0  0  0  0  0  0  0
    2.7857   -0.2594    2.7640 O   0  0  0  1  0  0  0  0  0  0  0  0
    5.6628   -0.6012    7.6008 F   0  0  0  1  0  0  0  0  0  0  0  0
    4.8097    0.9984   -0.2742 C   0  0  0  1  0  0  0  0  0  0  0  0
    3.5970    1.1914   -0.1980 O   0  0  0  1  0  0  0  0  0  0  0  0
    5.6917    1.9112   -1.1036 C   0  0  0  1  0  0  0  0  0  0  0  0
    4.3554    1.3113    2.5240 N   0  0  0  1  0  0  0  0  0  0  0  0
    3.6929    2.3409    3.3107 C   0  0  0  1  0  0  0  0  0  0  0  0
    6.3316   -0.2384    0.2018 H   0  0  0  1  0  0  0  0  0  0  0  0
    3.9240   -1.4178    0.7934 H   0  0  0  1  0  0  0  0  0  0  0  0
    6.2734   -1.1477    2.6321 H   0  0  0  1  0  0  0  0  0  0  0  0
    6.0363   -2.4031    1.4396 H   0  0  0  1  0  0  0  0  0  0  0  0
    3.8532   -4.0741    1.9597 H   0  0  0  1  0  0  0  0  0  0  0  0
    2.9055   -4.9103    4.1580 H   0  0  0  1  0  0  0  0  0  0  0  0
    3.1216   -4.2140    6.8789 H   0  0  0  1  0  0  0  0  0  0  0  0
    4.1599   -2.5640    8.3233 H   0  0  0  1  0  0  0  0  0  0  0  0
    5.9526   -0.6610    5.0360 H   0  0  0  1  0  0  0  0  0  0  0  0
    6.3279    2.4780   -0.4564 H   0  0  0  1  0  0  0  0  0  0  0  0
    5.0787    2.5775   -1.6739 H   0  0  0  1  0  0  0  0  0  0  0  0
    6.2911    1.3221   -1.7660 H   0  0  0  1  0  0  0  0  0  0  0  0
    5.2401    1.5199    2.1579 H   0  0  0  1  0  0  0  0  0  0  0  0
    2.6323    2.2216    3.2344 H   0  0  0  1  0  0  0  0  0  0  0  0
    3.9704    3.3058    2.9408 H   0  0  0  1  0  0  0  0  0  0  0  0
    3.9888    2.2524    4.3351 H   0  0  0  1  0  0  0  0  0  0  0  0
  1  3  1  0  0  0  0
  1 14  2  0  0  0  0
  1 19  1  0  0  0  0
  2  3  1  0  0  0  0
  2 16  1  0  0  0  0
  2 21  1  0  0  0  0
  3  4  1  0  0  0  0
  3 22  1  0  0  0  0
  4  5  1  0  0  0  0
  4 23  1  0  0  0  0
  4 24  1  0  0  0  0
  5  6  4  0  0  0  0
  5 13  4  0  0  0  0
  6  7  4  0  0  0  0
  6 25  1  0  0  0  0
  7  8  4  0  0  0  0
  7 26  1  0  0  0  0
  8  9  4  0  0  0  0
  8 13  4  0  0  0  0
  9 10  4  0  0  0  0
  9 27  1  0  0  0  0
 10 11  4  0  0  0  0
 10 28  1  0  0  0  0
 11 12  4  0  0  0  0
 11 15  1  0  0  0  0
 12 13  4  0  0  0  0
 12 29  1  0  0  0  0
 16 17  2  0  0  0  0
 16 18  1  0  0  0  0
 18 30  1  0  0  0  0
 18 31  1  0  0  0  0
 18 32  1  0  0  0  0
 19 20  1  0  0  0  0
 19 33  1  0  0  0  0
 20 34  1  0  0  0  0
 20 35  1  0  0  0  0
 20 36  1  0  0  0  0
M  END
> <ConfClashScore>
0 

> <ConfOneFourInteractionScore>
-0.956443 

> <ConfScore>
0.384339 

> <ConfScorePBest>
0.0144805 

> <ConfTolerance>
0.306231 

$$$$
5F-TRP.3D.capped.mmff94s.pdb
 OpenBabel09172212003D

 36 37  0  0  0  0  0  0  0  0999 V2000
    5.4558    0.2367    0.5848 C   0  0  0  1  0  0  0  0  0  0  0  0
    3.4089   -0.6836    1.4233 N   0  0  0  1  0  0  0  0  0  0  0  0
    4.7962   -0.4373    1.7721 C   0  0  0  1  0  0  0  0  0  0  0  0
    5.5271   -1.7308    2.1196 C   0  0  0  1  0  0  0  0  0  0  0  0
    4.7956   -2.5669    3.1354 C   0  0  0  1  0  0  0  0  0  0  0  0
    4.0169   -3.6791    2.8793 C   0  0  0  1  0  0  0  0  0  0  0  0
    3.5215   -4.1415    4.0681 N   0  0  0  1  0  0  0  0  0  0  0  0
    3.9668   -3.3582    5.1063 C   0  0  0  1  0  0  0  0  0  0  0  0
    3.7152   -3.4592    6.4813 C   0  0  0  1  0  0  0  0  0  0  0  0
    4.3092   -2.5098    7.3165 C   0  0  0  1  0  0  0  0  0  0  0  0
    5.1157   -1.5114    6.7860 C   0  0  0  1  0  0  0  0  0  0  0  0
    5.3624   -1.4174    5.4160 C   0  0  0  1  0  0  0  0  0  0  0  0
    4.7733   -2.3619    4.5528 C   0  0  0  1  0  0  0  0  0  0  0  0
    6.4886    0.8886    0.7147 O   0  0  0  1  0  0  0  0  0  0  0  0
    5.6747   -0.6100    7.6160 F   0  0  0  1  0  0  0  0  0  0  0  0
    2.6153    0.3806    1.1831 C   0  0  0  1  0  0  0  0  0  0  0  0
    3.0266    1.5400    1.1984 O   0  0  0  1  0  0  0  0  0  0  0  0
    1.1661    0.0661    0.8884 C   0  0  0  1  0  0  0  0  0  0  0  0
    4.8423    0.0724   -0.5906 N   0  0  0  1  0  0  0  0  0  0  0  0
    5.3841    0.6922   -1.7906 C   0  0  0  1  0  0  0  0  0  0  0  0
    3.0587   -1.5970    1.3640 H   0  0  0  1  0  0  0  0  0  0  0  0
    4.8450    0.2212    2.6141 H   0  0  0  1  0  0  0  0  0  0  0  0
    6.4906   -1.4824    2.5132 H   0  0  0  1  0  0  0  0  0  0  0  0
    5.6442   -2.3066    1.2254 H   0  0  0  1  0  0  0  0  0  0  0  0
    3.8379   -4.0941    1.9426 H   0  0  0  1  0  0  0  0  0  0  0  0
    2.9335   -4.9194    4.1654 H   0  0  0  1  0  0  0  0  0  0  0  0
    3.1093   -4.2123    6.8653 H   0  0  0  1  0  0  0  0  0  0  0  0
    4.1462   -2.5510    8.3428 H   0  0  0  1  0  0  0  0  0  0  0  0
    5.9707   -0.6630    5.0386 H   0  0  0  1  0  0  0  0  0  0  0  0
    0.9664    0.2404   -0.1482 H   0  0  0  1  0  0  0  0  0  0  0  0
    0.5368    0.6947    1.4832 H   0  0  0  1  0  0  0  0  0  0  0  0
    0.9694   -0.9595    1.1217 H   0  0  0  1  0  0  0  0  0  0  0  0
    4.0256   -0.4666   -0.6447 H   0  0  0  1  0  0  0  0  0  0  0  0
    6.4507    0.7390   -1.7181 H   0  0  0  1  0  0  0  0  0  0  0  0
    4.9899    1.6819   -1.8897 H   0  0  0  1  0  0  0  0  0  0  0  0
    5.1103    0.1113   -2.6465 H   0  0  0  1  0  0  0  0  0  0  0  0
  1  3  1  0  0  0  0
  1 14  2  0  0  0  0
  1 19  1  0  0  0  0
  2  3  1  0  0  0  0
  2 16  1  0  0  0  0
  2 21  1  0  0  0  0
  3  4  1  0  0  0  0
  3 22  1  0  0  0  0
  4  5  1  0  0  0  0
  4 23  1  0  0  0  0
  4 24  1  0  0  0  0
  5  6  4  0  0  0  0
  5 13  4  0  0  0  0
  6  7  4  0  0  0  0
  6 25  1  0  0  0  0
  7  8  4  0  0  0  0
  7 26  1  0  0  0  0
  8  9  4  0  0  0  0
  8 13  4  0  0  0  0
  9 10  4  0  0  0  0
  9 27  1  0  0  0  0
 10 11  4  0  0  0  0
 10 28  1  0  0  0  0
 11 12  4  0  0  0  0
 11 15  1  0  0  0  0
 12 13  4  0  0  0  0
 12 29  1  0  0  0  0
 16 17  2  0  0  0  0
 16 18  1  0  0  0  0
 18 30  1  0  0  0  0
 18 31  1  0  0  0  0
 18 32  1  0  0  0  0
 19 20  1  0  0  0  0
 19 33  1  0  0  0  0
 20 34  1  0  0  0  0
 20 35  1  0  0  0  0
 20 36  1  0  0  0  0
M  END
> <ConfClashScore>
0 

> <ConfOneFourInteractionScore>
-0.94165 

> <ConfScore>
0.386775 

> <ConfScorePBest>
0.0143775 

> <ConfTolerance>
0.342719 

$$$$
5F-TRP.3D.capped.mmff94s.pdb
 OpenBabel09172212003D

 36 37  0  0  0  0  0  0  0  0999 V2000
    5.5989    0.4628    0.8943 C   0  0  0  1  0  0  0  0  0  0  0  0
    3.6356   -0.9850    0.7361 N   0  0  0  1  0  0  0  0  0  0  0  0
    4.7042   -0.5416    1.6170 C   0  0  0  1  0  0  0  0  0  0  0  0
    5.5271   -1.7308    2.1196 C   0  0  0  1  0  0  0  0  0  0  0  0
    4.7956   -2.5669    3.1354 C   0  0  0  1  0  0  0  0  0  0  0  0
    4.0169   -3.6791    2.8793 C   0  0  0  1  0  0  0  0  0  0  0  0
    3.5215   -4.1415    4.0681 N   0  0  0  1  0  0  0  0  0  0  0  0
    3.9668   -3.3582    5.1063 C   0  0  0  1  0  0  0  0  0  0  0  0
    3.7152   -3.4592    6.4813 C   0  0  0  1  0  0  0  0  0  0  0  0
    4.3092   -2.5098    7.3165 C   0  0  0  1  0  0  0  0  0  0  0  0
    5.1157   -1.5114    6.7860 C   0  0  0  1  0  0  0  0  0  0  0  0
    5.3624   -1.4174    5.4160 C   0  0  0  1  0  0  0  0  0  0  0  0
    4.7733   -2.3619    4.5528 C   0  0  0  1  0  0  0  0  0  0  0  0
    6.1902    1.3434    1.5134 O   0  0  0  1  0  0  0  0  0  0  0  0
    5.6747   -0.6100    7.6160 F   0  0  0  1  0  0  0  0  0  0  0  0
    2.7144   -0.1054    0.1882 C   0  0  0  1  0  0  0  0  0  0  0  0
    2.7386    1.0589    0.5433 O   0  0  0  1  0  0  0  0  0  0  0  0
    1.7241   -0.6186   -0.8192 C   0  0  0  1  0  0  0  0  0  0  0  0
    5.6138    0.3525   -0.4350 N   0  0  0  1  0  0  0  0  0  0  0  0
    6.1525    1.3952   -1.2956 C   0  0  0  1  0  0  0  0  0  0  0  0
    3.5641   -1.9387    0.5221 H   0  0  0  1  0  0  0  0  0  0  0  0
    4.2753   -0.0529    2.4668 H   0  0  0  1  0  0  0  0  0  0  0  0
    6.4248   -1.3587    2.5676 H   0  0  0  1  0  0  0  0  0  0  0  0
    5.7755   -2.3507    1.2836 H   0  0  0  1  0  0  0  0  0  0  0  0
    3.8379   -4.0941    1.9426 H   0  0  0  1  0  0  0  0  0  0  0  0
    2.9335   -4.9194    4.1654 H   0  0  0  1  0  0  0  0  0  0  0  0
    3.1093   -4.2123    6.8653 H   0  0  0  1  0  0  0  0  0  0  0  0
    4.1462   -2.5510    8.3428 H   0  0  0  1  0  0  0  0  0  0  0  0
    5.9707   -0.6630    5.0386 H   0  0  0  1  0  0  0  0  0  0  0  0
    1.1113   -1.3701   -0.3668 H   0  0  0  1  0  0  0  0  0  0  0  0
    2.2482   -1.0397   -1.6516 H   0  0  0  1  0  0  0  0  0  0  0  0
    1.1078    0.1885   -1.1563 H   0  0  0  1  0  0  0  0  0  0  0  0
    5.2494   -0.4589   -0.8464 H   0  0  0  1  0  0  0  0  0  0  0  0
    7.2197    1.4055   -1.2190 H   0  0  0  1  0  0  0  0  0  0  0  0
    5.7641    2.3446   -0.9911 H   0  0  0  1  0  0  0  0  0  0  0  0
    5.8697    1.2020   -2.3093 H   0  0  0  1  0  0  0  0  0  0  0  0
  1  3  1  0  0  0  0
  1 14  2  0  0  0  0
  1 19  1  0  0  0  0
  2  3  1  0  0  0  0
  2 16  1  0  0  0  0
  2 21  1  0  0  0  0
  3  4  1  0  0  0  0
  3 22  1  0  0  0  0
  4  5  1  0  0  0  0
  4 23  1  0  0  0  0
  4 24  1  0  0  0  0
  5  6  4  0  0  0  0
  5 13  4  0  0  0  0
  6  7  4  0  0  0  0
  6 25  1  0  0  0  0
  7  8  4  0  0  0  0
  7 26  1  0  0  0  0
  8  9  4  0  0  0  0
  8 13  4  0  0  0  0
  9 10  4  0  0  0  0
  9 27  1  0  0  0  0
 10 11  4  0  0  0  0
 10 28  1  0  0  0  0
 11 12  4  0  0  0  0
 11 15  1  0  0  0  0
 12 13  4  0  0  0  0
 12 29  1  0  0  0  0
 16 17  2  0  0  0  0
 16 18  1  0  0  0  0
 18 30  1  0  0  0  0
 18 31  1  0  0  0  0
 18 32  1  0  0  0  0
 19 20  1  0  0  0  0
 19 33  1  0  0  0  0
 20 34  1  0  0  0  0
 20 35  1  0  0  0  0
 20 36  1  0  0  0  0
M  END
> <ConfClashScore>
0 

> <ConfOneFourInteractionScore>
-0.956443 

> <ConfScore>
0.390516 

> <ConfScorePBest>
0.0142745 

> <ConfTolerance>
0.318973 

$$$$
5F-TRP.3D.capped.mmff94s.pdb
 OpenBabel09172212003D

 36 37  0  0  0  0  0  0  0  0999 V2000
    6.6828   -3.8258    1.3222 C   0  0  0  1  0  0  0  0  0  0  0  0
    7.4565   -1.6270    0.5869 N   0  0  0  1  0  0  0  0  0  0  0  0
    6.8712   -2.3607    1.7001 C   0  0  0  1  0  0  0  0  0  0  0  0
    5.5449   -1.7420    2.1218 C   0  0  0  1  0  0  0  0  0  0  0  0
    4.8055   -2.5689    3.1393 C   0  0  0  1  0  0  0  0  0  0  0  0
    4.0269   -3.6623    2.8989 C   0  0  0  1  0  0  0  0  0  0  0  0
    3.5059   -4.1405    4.0739 N   0  0  0  1  0  0  0  0  0  0  0  0
    3.9589   -3.3701    5.1097 C   0  0  0  1  0  0  0  0  0  0  0  0
    3.7219   -3.4623    6.4840 C   0  0  0  1  0  0  0  0  0  0  0  0
    4.3140   -2.5193    7.2958 C   0  0  0  1  0  0  0  0  0  0  0  0
    5.1134   -1.5087    6.7710 C   0  0  0  1  0  0  0  0  0  0  0  0
    5.3526   -1.4202    5.4174 C   0  0  0  1  0  0  0  0  0  0  0  0
    4.7766   -2.3667    4.5630 C   0  0  0  1  0  0  0  0  0  0  0  0
    6.8418   -4.7237    2.1481 O   0  0  0  1  0  0  0  0  0  0  0  0
    5.6627   -0.6012    7.6008 F   0  0  0  1  0  0  0  0  0  0  0  0
    8.5995   -1.9651   -0.0166 C   0  0  0  1  0  0  0  0  0  0  0  0
    9.3434   -2.8464    0.4058 O   0  0  0  1  0  0  0  0  0  0  0  0
    8.9353   -1.1878   -1.2744 C   0  0  0  1  0  0  0  0  0  0  0  0
    6.3388   -4.0581    0.0523 N   0  0  0  1  0  0  0  0  0  0  0  0
    6.0403   -5.3946   -0.4403 C   0  0  0  1  0  0  0  0  0  0  0  0
    6.9817   -0.8346    0.2594 H   0  0  0  1  0  0  0  0  0  0  0  0
    7.5390   -2.3164    2.5350 H   0  0  0  1  0  0  0  0  0  0  0  0
    4.9271   -1.6368    1.2545 H   0  0  0  1  0  0  0  0  0  0  0  0
    5.7376   -0.7770    2.5422 H   0  0  0  1  0  0  0  0  0  0  0  0
    3.8531   -4.0742    1.9598 H   0  0  0  1  0  0  0  0  0  0  0  0
    2.9055   -4.9104    4.1581 H   0  0  0  1  0  0  0  0  0  0  0  0
    3.1215   -4.2141    6.8790 H   0  0  0  1  0  0  0  0  0  0  0  0
    4.1599   -2.5640    8.3234 H   0  0  0  1  0  0  0  0  0  0  0  0
    5.9526   -0.6611    5.0361 H   0  0  0  1  0  0  0  0  0  0  0  0
    8.9526   -0.1410   -1.0535 H   0  0  0  1  0  0  0  0  0  0  0  0
    8.1948   -1.3822   -2.0219 H   0  0  0  1  0  0  0  0  0  0  0  0
    9.8956   -1.4917   -1.6355 H   0  0  0  1  0  0  0  0  0  0  0  0
    6.2856   -3.3022   -0.5692 H   0  0  0  1  0  0  0  0  0  0  0  0
    5.7868   -6.0301    0.3824 H   0  0  0  1  0  0  0  0  0  0  0  0
    6.8982   -5.7886   -0.9440 H   0  0  0  1  0  0  0  0  0  0  0  0
    5.2165   -5.3476   -1.1215 H   0  0  0  1  0  0  0  0  0  0  0  0
  1  3  1  0  0  0  0
  1 14  2  0  0  0  0
  1 19  1  0  0  0  0
  2  3  1  0  0  0  0
  2 16  1  0  0  0  0
  2 21  1  0  0  0  0
  3  4  1  0  0  0  0
  3 22  1  0  0  0  0
  4  5  1  0  0  0  0
  4 23  1  0  0  0  0
  4 24  1  0  0  0  0
  5  6  4  0  0  0  0
  5 13  4  0  0  0  0
  6  7  4  0  0  0  0
  6 25  1  0  0  0  0
  7  8  4  0  0  0  0
  7 26  1  0  0  0  0
  8  9  4  0  0  0  0
  8 13  4  0  0  0  0
  9 10  4  0  0  0  0
  9 27  1  0  0  0  0
 10 11  4  0  0  0  0
 10 28  1  0  0  0  0
 11 12  4  0  0  0  0
 11 15  1  0  0  0  0
 12 13  4  0  0  0  0
 12 29  1  0  0  0  0
 16 17  2  0  0  0  0
 16 18  1  0  0  0  0
 18 30  1  0  0  0  0
 18 31  1  0  0  0  0
 18 32  1  0  0  0  0
 19 20  1  0  0  0  0
 19 33  1  0  0  0  0
 20 34  1  0  0  0  0
 20 35  1  0  0  0  0
 20 36  1  0  0  0  0
M  END
> <ConfClashScore>
0 

> <ConfOneFourInteractionScore>
-0.956443 

> <ConfScore>
0.393395 

> <ConfScorePBest>
0.0141715 

> <ConfTolerance>
0.308052 

$$$$
5F-TRP.3D.capped.mmff94s.pdb
 OpenBabel09172212003D

 36 37  0  0  0  0  0  0  0  0999 V2000
    7.2817   -3.6249    1.9534 C   0  0  0  1  0  0  0  0  0  0  0  0
    7.7682   -1.4280    1.0309 N   0  0  0  1  0  0  0  0  0  0  0  0
    7.0282   -2.1244    2.0737 C   0  0  0  1  0  0  0  0  0  0  0  0
    5.5490   -1.7374    2.1157 C   0  0  0  1  0  0  0  0  0  0  0  0
    4.8051   -2.5694    3.1397 C   0  0  0  1  0  0  0  0  0  0  0  0
    4.0264   -3.6628    2.8994 C   0  0  0  1  0  0  0  0  0  0  0  0
    3.5055   -4.1409    4.0745 N   0  0  0  1  0  0  0  0  0  0  0  0
    3.9586   -3.3704    5.1102 C   0  0  0  1  0  0  0  0  0  0  0  0
    3.7217   -3.4625    6.4845 C   0  0  0  1  0  0  0  0  0  0  0  0
    4.3138   -2.5194    7.2962 C   0  0  0  1  0  0  0  0  0  0  0  0
    5.1132   -1.5089    6.7712 C   0  0  0  1  0  0  0  0  0  0  0  0
    5.3524   -1.4205    5.4176 C   0  0  0  1  0  0  0  0  0  0  0  0
    4.7763   -2.3670    4.5634 C   0  0  0  1  0  0  0  0  0  0  0  0
    7.4620   -4.3353    2.9257 O   0  0  0  1  0  0  0  0  0  0  0  0
    5.6627   -0.6014    7.6009 F   0  0  0  1  0  0  0  0  0  0  0  0
    9.0991   -1.5287    0.9715 C   0  0  0  1  0  0  0  0  0  0  0  0
    9.7480   -2.2727    1.7056 O   0  0  0  1  0  0  0  0  0  0  0  0
    9.7796   -0.6605   -0.0689 C   0  0  0  1  0  0  0  0  0  0  0  0
    7.3077   -4.1862    0.7350 N   0  0  0  1  0  0  0  0  0  0  0  0
    7.5051   -5.6213    0.5957 C   0  0  0  1  0  0  0  0  0  0  0  0
    7.2890   -0.8842    0.3713 H   0  0  0  1  0  0  0  0  0  0  0  0
    7.4447   -1.8227    3.0119 H   0  0  0  1  0  0  0  0  0  0  0  0
    5.1163   -1.8997    1.1507 H   0  0  0  1  0  0  0  0  0  0  0  0
    5.4643   -0.7030    2.3758 H   0  0  0  1  0  0  0  0  0  0  0  0
    3.8526   -4.0748    1.9604 H   0  0  0  1  0  0  0  0  0  0  0  0
    2.9051   -4.9108    4.1588 H   0  0  0  1  0  0  0  0  0  0  0  0
    3.1214   -4.2142    6.8796 H   0  0  0  1  0  0  0  0  0  0  0  0
    4.1599   -2.5640    8.3238 H   0  0  0  1  0  0  0  0  0  0  0  0
    5.9523   -0.6614    5.0362 H   0  0  0  1  0  0  0  0  0  0  0  0
    9.3721   -0.8748   -1.0348 H   0  0  0  1  0  0  0  0  0  0  0  0
   10.8299   -0.8648   -0.0718 H   0  0  0  1  0  0  0  0  0  0  0  0
    9.6169    0.3707    0.1658 H   0  0  0  1  0  0  0  0  0  0  0  0
    7.1936   -3.6287   -0.0628 H   0  0  0  1  0  0  0  0  0  0  0  0
    6.6442   -6.1379    0.9656 H   0  0  0  1  0  0  0  0  0  0  0  0
    8.3670   -5.9186    1.1558 H   0  0  0  1  0  0  0  0  0  0  0  0
    7.6494   -5.8627   -0.4367 H   0  0  0  1  0  0  0  0  0  0  0  0
  1  3  1  0  0  0  0
  1 14  2  0  0  0  0
  1 19  1  0  0  0  0
  2  3  1  0  0  0  0
  2 16  1  0  0  0  0
  2 21  1  0  0  0  0
  3  4  1  0  0  0  0
  3 22  1  0  0  0  0
  4  5  1  0  0  0  0
  4 23  1  0  0  0  0
  4 24  1  0  0  0  0
  5  6  4  0  0  0  0
  5 13  4  0  0  0  0
  6  7  4  0  0  0  0
  6 25  1  0  0  0  0
  7  8  4  0  0  0  0
  7 26  1  0  0  0  0
  8  9  4  0  0  0  0
  8 13  4  0  0  0  0
  9 10  4  0  0  0  0
  9 27  1  0  0  0  0
 10 11  4  0  0  0  0
 10 28  1  0  0  0  0
 11 12  4  0  0  0  0
 11 15  1  0  0  0  0
 12 13  4  0  0  0  0
 12 29  1  0  0  0  0
 16 17  2  0  0  0  0
 16 18  1  0  0  0  0
 18 30  1  0  0  0  0
 18 31  1  0  0  0  0
 18 32  1  0  0  0  0
 19 20  1  0  0  0  0
 19 33  1  0  0  0  0
 20 34  1  0  0  0  0
 20 35  1  0  0  0  0
 20 36  1  0  0  0  0
M  END
> <ConfClashScore>
0 

> <ConfOneFourInteractionScore>
-0.956443 

> <ConfScore>
0.40461 

> <ConfScorePBest>
0.0140685 

> <ConfTolerance>
0.331302 

$$$$
5F-TRP.3D.capped.mmff94s.pdb
 OpenBabel09172212003D

 36 37  0  0  0  0  0  0  0  0999 V2000
    5.4005   -0.2814    0.0828 C   0  0  0  1  0  0  0  0  0  0  0  0
    4.0970   -2.3829    0.2686 N   0  0  0  1  0  0  0  0  0  0  0  0
    4.6537   -1.2502    0.9931 C   0  0  0  1  0  0  0  0  0  0  0  0
    5.5449   -1.7420    2.1218 C   0  0  0  1  0  0  0  0  0  0  0  0
    4.8055   -2.5689    3.1393 C   0  0  0  1  0  0  0  0  0  0  0  0
    4.0269   -3.6623    2.8989 C   0  0  0  1  0  0  0  0  0  0  0  0
    3.5059   -4.1405    4.0739 N   0  0  0  1  0  0  0  0  0  0  0  0
    3.9589   -3.3701    5.1097 C   0  0  0  1  0  0  0  0  0  0  0  0
    3.7219   -3.4623    6.4840 C   0  0  0  1  0  0  0  0  0  0  0  0
    4.3140   -2.5193    7.2958 C   0  0  0  1  0  0  0  0  0  0  0  0
    5.1134   -1.5087    6.7710 C   0  0  0  1  0  0  0  0  0  0  0  0
    5.3526   -1.4202    5.4174 C   0  0  0  1  0  0  0  0  0  0  0  0
    4.7766   -2.3667    4.5630 C   0  0  0  1  0  0  0  0  0  0  0  0
    5.4510    0.9119    0.3692 O   0  0  0  1  0  0  0  0  0  0  0  0
    5.6627   -0.6012    7.6008 F   0  0  0  1  0  0  0  0  0  0  0  0
    3.1014   -2.1981   -0.6030 C   0  0  0  1  0  0  0  0  0  0  0  0
    2.6733   -1.0849   -0.9047 O   0  0  0  1  0  0  0  0  0  0  0  0
    2.5165   -3.4576   -1.2118 C   0  0  0  1  0  0  0  0  0  0  0  0
    6.0466   -0.8114   -0.9597 N   0  0  0  1  0  0  0  0  0  0  0  0
    6.9460   -0.0303   -1.7957 C   0  0  0  1  0  0  0  0  0  0  0  0
    4.4532   -3.2832    0.4203 H   0  0  0  1  0  0  0  0  0  0  0  0
    3.8448   -0.7092    1.4379 H   0  0  0  1  0  0  0  0  0  0  0  0
    5.9685   -0.8927    2.6160 H   0  0  0  1  0  0  0  0  0  0  0  0
    6.3280   -2.3384    1.7022 H   0  0  0  1  0  0  0  0  0  0  0  0
    3.8531   -4.0742    1.9598 H   0  0  0  1  0  0  0  0  0  0  0  0
    2.9055   -4.9104    4.1581 H   0  0  0  1  0  0  0  0  0  0  0  0
    3.1215   -4.2141    6.8790 H   0  0  0  1  0  0  0  0  0  0  0  0
    4.1599   -2.5640    8.3234 H   0  0  0  1  0  0  0  0  0  0  0  0
    5.9526   -0.6611    5.0361 H   0  0  0  1  0  0  0  0  0  0  0  0
    3.2275   -3.8939   -1.8819 H   0  0  0  1  0  0  0  0  0  0  0  0
    1.6241   -3.2127   -1.7490 H   0  0  0  1  0  0  0  0  0  0  0  0
    2.2851   -4.1551   -0.4341 H   0  0  0  1  0  0  0  0  0  0  0  0
    5.9101   -1.7590   -1.1687 H   0  0  0  1  0  0  0  0  0  0  0  0
    6.4348    0.8379   -2.1562 H   0  0  0  1  0  0  0  0  0  0  0  0
    7.2678   -0.6246   -2.6252 H   0  0  0  1  0  0  0  0  0  0  0  0
    7.7966    0.2702   -1.2203 H   0  0  0  1  0  0  0  0  0  0  0  0
  1  3  1  0  0  0  0
  1 14  2  0  0  0  0
  1 19  1  0  0  0  0
  2  3  1  0  0  0  0
  2 16  1  0  0  0  0
  2 21  1  0  0  0  0
  3  4  1  0  0  0  0
  3 22  1  0  0  0  0
  4  5  1  0  0  0  0
  4 23  1  0  0  0  0
  4 24  1  0  0  0  0
  5  6  4  0  0  0  0
  5 13  4  0  0  0  0
  6  7  4  0  0  0  0
  6 25  1  0  0  0  0
  7  8  4  0  0  0  0
  7 26  1  0  0  0  0
  8  9  4  0  0  0  0
  8 13  4  0  0  0  0
  9 10  4  0  0  0  0
  9 27  1  0  0  0  0
 10 11  4  0  0  0  0
 10 28  1  0  0  0  0
 11 12  4  0  0  0  0
 11 15  1  0  0  0  0
 12 13  4  0  0  0  0
 12 29  1  0  0  0  0
 16 17  2  0  0  0  0
 16 18  1  0  0  0  0
 18 30  1  0  0  0  0
 18 31  1  0  0  0  0
 18 32  1  0  0  0  0
 19 20  1  0  0  0  0
 19 33  1  0  0  0  0
 20 34  1  0  0  0  0
 20 35  1  0  0  0  0
 20 36  1  0  0  0  0
M  END
> <ConfClashScore>
0 

> <ConfOneFourInteractionScore>
-0.956443 

> <ConfScore>
0.413098 

> <ConfScorePBest>
0.0139655 

> <ConfTolerance>
0.254291 

$$$$
5F-TRP.3D.capped.mmff94s.pdb
 OpenBabel09172212003D

 36 37  0  0  0  0  0  0  0  0999 V2000
    3.9842    0.1288    2.7890 C   0  0  0  1  0  0  0  0  0  0  0  0
    5.4238    0.3752    0.8352 N   0  0  0  1  0  0  0  0  0  0  0  0
    4.6487   -0.5757    1.6180 C   0  0  0  1  0  0  0  0  0  0  0  0
    5.5318   -1.7255    2.1126 C   0  0  0  1  0  0  0  0  0  0  0  0
    4.7951   -2.5675    3.1358 C   0  0  0  1  0  0  0  0  0  0  0  0
    4.0164   -3.6797    2.8798 C   0  0  0  1  0  0  0  0  0  0  0  0
    3.5211   -4.1419    4.0688 N   0  0  0  1  0  0  0  0  0  0  0  0
    3.9665   -3.3586    5.1068 C   0  0  0  1  0  0  0  0  0  0  0  0
    3.7149   -3.4594    6.4819 C   0  0  0  1  0  0  0  0  0  0  0  0
    4.3090   -2.5100    7.3169 C   0  0  0  1  0  0  0  0  0  0  0  0
    5.1156   -1.5116    6.7862 C   0  0  0  1  0  0  0  0  0  0  0  0
    5.3621   -1.4178    5.4163 C   0  0  0  1  0  0  0  0  0  0  0  0
    4.7730   -2.3623    4.5532 C   0  0  0  1  0  0  0  0  0  0  0  0
    2.8352   -0.1540    3.1260 O   0  0  0  1  0  0  0  0  0  0  0  0
    5.6746   -0.6101    7.6162 F   0  0  0  1  0  0  0  0  0  0  0  0
    4.9476    1.5118    0.3247 C   0  0  0  1  0  0  0  0  0  0  0  0
    3.8412    1.9577    0.6259 O   0  0  0  1  0  0  0  0  0  0  0  0
    5.8806    2.3119   -0.5847 C   0  0  0  1  0  0  0  0  0  0  0  0
    4.6842    1.0624    3.4396 N   0  0  0  1  0  0  0  0  0  0  0  0
    4.1581    1.7572    4.6051 C   0  0  0  1  0  0  0  0  0  0  0  0
    6.3667    0.1647    0.6708 H   0  0  0  1  0  0  0  0  0  0  0  0
    3.8806   -0.9912    0.9996 H   0  0  0  1  0  0  0  0  0  0  0  0
    6.4152   -1.3214    2.5612 H   0  0  0  1  0  0  0  0  0  0  0  0
    5.8035   -2.3419    1.2812 H   0  0  0  1  0  0  0  0  0  0  0  0
    3.8373   -4.0948    1.9433 H   0  0  0  1  0  0  0  0  0  0  0  0
    2.9331   -4.9199    4.1662 H   0  0  0  1  0  0  0  0  0  0  0  0
    3.1091   -4.2124    6.8660 H   0  0  0  1  0  0  0  0  0  0  0  0
    4.1461   -2.5510    8.3433 H   0  0  0  1  0  0  0  0  0  0  0  0
    5.9704   -0.6634    5.0387 H   0  0  0  1  0  0  0  0  0  0  0  0
    5.7078    2.0372   -1.6042 H   0  0  0  1  0  0  0  0  0  0  0  0
    6.8973    2.1012   -0.3262 H   0  0  0  1  0  0  0  0  0  0  0  0
    5.6898    3.3573   -0.4600 H   0  0  0  1  0  0  0  0  0  0  0  0
    5.5833    1.2872    3.1209 H   0  0  0  1  0  0  0  0  0  0  0  0
    4.0857    1.0741    5.4256 H   0  0  0  1  0  0  0  0  0  0  0  0
    3.1877    2.1474    4.3795 H   0  0  0  1  0  0  0  0  0  0  0  0
    4.8141    2.5608    4.8672 H   0  0  0  1  0  0  0  0  0  0  0  0
  1  3  1  0  0  0  0
  1 14  2  0  0  0  0
  1 19  1  0  0  0  0
  2  3  1  0  0  0  0
  2 16  1  0  0  0  0
  2 21  1  0  0  0  0
  3  4  1  0  0  0  0
  3 22  1  0  0  0  0
  4  5  1  0  0  0  0
  4 23  1  0  0  0  0
  4 24  1  0  0  0  0
  5  6  4  0  0  0  0
  5 13  4  0  0  0  0
  6  7  4  0  0  0  0
  6 25  1  0  0  0  0
  7  8  4  0  0  0  0
  7 26  1  0  0  0  0
  8  9  4  0  0  0  0
  8 13  4  0  0  0  0
  9 10  4  0  0  0  0
  9 27  1  0  0  0  0
 10 11  4  0  0  0  0
 10 28  1  0  0  0  0
 11 12  4  0  0  0  0
 11 15  1  0  0  0  0
 12 13  4  0  0  0  0
 12 29  1  0  0  0  0
 16 17  2  0  0  0  0
 16 18  1  0  0  0  0
 18 30  1  0  0  0  0
 18 31  1  0  0  0  0
 18 32  1  0  0  0  0
 19 20  1  0  0  0  0
 19 33  1  0  0  0  0
 20 34  1  0  0  0  0
 20 35  1  0  0  0  0
 20 36  1  0  0  0  0
M  END
> <ConfClashScore>
0 

> <ConfOneFourInteractionScore>
-0.949394 

> <ConfScore>
0.426059 

> <ConfScorePBest>
0.0138625 

> <ConfTolerance>
0.690964 

$$$$
5F-TRP.3D.capped.mmff94s.pdb
 OpenBabel09172212003D

 36 37  0  0  0  0  0  0  0  0999 V2000
    5.8364   -1.0072   -0.2443 C   0  0  0  1  0  0  0  0  0  0  0  0
    5.6287   -3.3757    0.2950 N   0  0  0  1  0  0  0  0  0  0  0  0
    5.2003   -2.0349    0.6713 C   0  0  0  1  0  0  0  0  0  0  0  0
    5.5443   -1.7426    2.1227 C   0  0  0  1  0  0  0  0  0  0  0  0
    4.8056   -2.5689    3.1393 C   0  0  0  1  0  0  0  0  0  0  0  0
    4.0269   -3.6622    2.8988 C   0  0  0  1  0  0  0  0  0  0  0  0
    3.5059   -4.1404    4.0738 N   0  0  0  1  0  0  0  0  0  0  0  0
    3.9590   -3.3701    5.1097 C   0  0  0  1  0  0  0  0  0  0  0  0
    3.7220   -3.4623    6.4840 C   0  0  0  1  0  0  0  0  0  0  0  0
    4.3140   -2.5193    7.2958 C   0  0  0  1  0  0  0  0  0  0  0  0
    5.1134   -1.5087    6.7709 C   0  0  0  1  0  0  0  0  0  0  0  0
    5.3527   -1.4202    5.4173 C   0  0  0  1  0  0  0  0  0  0  0  0
    4.7767   -2.3666    4.5630 C   0  0  0  1  0  0  0  0  0  0  0  0
    5.2935    0.0748   -0.4644 O   0  0  0  1  0  0  0  0  0  0  0  0
    5.6628   -0.6012    7.6008 F   0  0  0  1  0  0  0  0  0  0  0  0
    5.3264   -3.9792   -0.8555 C   0  0  0  1  0  0  0  0  0  0  0  0
    4.7535   -3.4083   -1.7798 O   0  0  0  1  0  0  0  0  0  0  0  0
    5.7356   -5.4353   -0.9629 C   0  0  0  1  0  0  0  0  0  0  0  0
    7.0089   -1.3570   -0.7849 N   0  0  0  1  0  0  0  0  0  0  0  0
    7.7478   -0.4756   -1.6766 C   0  0  0  1  0  0  0  0  0  0  0  0
    6.1805   -3.8715    0.9354 H   0  0  0  1  0  0  0  0  0  0  0  0
    4.1380   -1.9663    0.5632 H   0  0  0  1  0  0  0  0  0  0  0  0
    5.3258   -0.7125    2.3127 H   0  0  0  1  0  0  0  0  0  0  0  0
    6.5919   -1.9157    2.2549 H   0  0  0  1  0  0  0  0  0  0  0  0
    3.8532   -4.0741    1.9597 H   0  0  0  1  0  0  0  0  0  0  0  0
    2.9055   -4.9103    4.1580 H   0  0  0  1  0  0  0  0  0  0  0  0
    3.1216   -4.2140    6.8789 H   0  0  0  1  0  0  0  0  0  0  0  0
    4.1599   -2.5640    8.3233 H   0  0  0  1  0  0  0  0  0  0  0  0
    5.9526   -0.6610    5.0360 H   0  0  0  1  0  0  0  0  0  0  0  0
    5.3480   -5.9779   -0.1261 H   0  0  0  1  0  0  0  0  0  0  0  0
    6.8032   -5.5059   -0.9700 H   0  0  0  1  0  0  0  0  0  0  0  0
    5.3442   -5.8497   -1.8685 H   0  0  0  1  0  0  0  0  0  0  0  0
    7.3834   -2.2375   -0.5730 H   0  0  0  1  0  0  0  0  0  0  0  0
    7.4394    0.5361   -1.5149 H   0  0  0  1  0  0  0  0  0  0  0  0
    7.5517   -0.7501   -2.6920 H   0  0  0  1  0  0  0  0  0  0  0  0
    8.7955   -0.5649   -1.4784 H   0  0  0  1  0  0  0  0  0  0  0  0
  1  3  1  0  0  0  0
  1 14  2  0  0  0  0
  1 19  1  0  0  0  0
  2  3  1  0  0  0  0
  2 16  1  0  0  0  0
  2 21  1  0  0  0  0
  3  4  1  0  0  0  0
  3 22  1  0  0  0  0
  4  5  1  0  0  0  0
  4 23  1  0  0  0  0
  4 24  1  0  0  0  0
  5  6  4  0  0  0  0
  5 13  4  0  0  0  0
  6  7  4  0  0  0  0
  6 25  1  0  0  0  0
  7  8  4  0  0  0  0
  7 26  1  0  0  0  0
  8  9  4  0  0  0  0
  8 13  4  0  0  0  0
  9 10  4  0  0  0  0
  9 27  1  0  0  0  0
 10 11  4  0  0  0  0
 10 28  1  0  0  0  0
 11 12  4  0  0  0  0
 11 15  1  0  0  0  0
 12 13  4  0  0  0  0
 12 29  1  0  0  0  0
 16 17  2  0  0  0  0
 16 18  1  0  0  0  0
 18 30  1  0  0  0  0
 18 31  1  0  0  0  0
 18 32  1  0  0  0  0
 19 20  1  0  0  0  0
 19 33  1  0  0  0  0
 20 34  1  0  0  0  0
 20 35  1  0  0  0  0
 20 36  1  0  0  0  0
M  END
> <ConfClashScore>
0 

> <ConfOneFourInteractionScore>
-0.949001 

> <ConfScore>
0.426164 

> <ConfScorePBest>
0.0137595 

> <ConfTolerance>
0.290148 

$$$$
5F-TRP.3D.capped.mmff94s.pdb
 OpenBabel09172212003D

 36 37  0  0  0  0  0  0  0  0999 V2000
    6.6798   -3.6379    1.0638 C   0  0  0  1  0  0  0  0  0  0  0  0
    7.7202   -1.4580    0.9694 N   0  0  0  1  0  0  0  0  0  0  0  0
    6.9044   -2.3194    1.8123 C   0  0  0  1  0  0  0  0  0  0  0  0
    5.5313   -1.7261    2.1134 C   0  0  0  1  0  0  0  0  0  0  0  0
    4.7952   -2.5674    3.1358 C   0  0  0  1  0  0  0  0  0  0  0  0
    4.0165   -3.6796    2.8798 C   0  0  0  1  0  0  0  0  0  0  0  0
    3.5211   -4.1419    4.0687 N   0  0  0  1  0  0  0  0  0  0  0  0
    3.9665   -3.3586    5.1068 C   0  0  0  1  0  0  0  0  0  0  0  0
    3.7150   -3.4594    6.4818 C   0  0  0  1  0  0  0  0  0  0  0  0
    4.3090   -2.5100    7.3169 C   0  0  0  1  0  0  0  0  0  0  0  0
    5.1156   -1.5116    6.7862 C   0  0  0  1  0  0  0  0  0  0  0  0
    5.3621   -1.4177    5.4162 C   0  0  0  1  0  0  0  0  0  0  0  0
    4.7730   -2.3623    4.5531 C   0  0  0  1  0  0  0  0  0  0  0  0
    6.7552   -4.7151    1.6488 O   0  0  0  1  0  0  0  0  0  0  0  0
    5.6746   -0.6101    7.6162 F   0  0  0  1  0  0  0  0  0  0  0  0
    8.9688   -1.7970    0.5871 C   0  0  0  1  0  0  0  0  0  0  0  0
    9.4803   -2.8545    0.9527 O   0  0  0  1  0  0  0  0  0  0  0  0
    9.7238   -0.8383   -0.3056 C   0  0  0  1  0  0  0  0  0  0  0  0
    6.4001   -3.5794   -0.2414 N   0  0  0  1  0  0  0  0  0  0  0  0
    6.1842   -4.7737   -1.0444 C   0  0  0  1  0  0  0  0  0  0  0  0
    7.3496   -0.6019    0.6691 H   0  0  0  1  0  0  0  0  0  0  0  0
    7.4084   -2.5200    2.7346 H   0  0  0  1  0  0  0  0  0  0  0  0
    4.9586   -1.6909    1.2102 H   0  0  0  1  0  0  0  0  0  0  0  0
    5.6539   -0.7350    2.4974 H   0  0  0  1  0  0  0  0  0  0  0  0
    3.8373   -4.0947    1.9432 H   0  0  0  1  0  0  0  0  0  0  0  0
    2.9331   -4.9198    4.1661 H   0  0  0  1  0  0  0  0  0  0  0  0
    3.1091   -4.2124    6.8659 H   0  0  0  1  0  0  0  0  0  0  0  0
    4.1461   -2.5510    8.3432 H   0  0  0  1  0  0  0  0  0  0  0  0
    5.9704   -0.6634    5.0387 H   0  0  0  1  0  0  0  0  0  0  0  0
    9.7034    0.1413    0.1243 H   0  0  0  1  0  0  0  0  0  0  0  0
    9.2640   -0.8134   -1.2714 H   0  0  0  1  0  0  0  0  0  0  0  0
   10.7384   -1.1644   -0.4013 H   0  0  0  1  0  0  0  0  0  0  0  0
    6.3382   -2.7017   -0.6730 H   0  0  0  1  0  0  0  0  0  0  0  0
    5.8362   -4.4925   -2.0164 H   0  0  0  1  0  0  0  0  0  0  0  0
    5.4533   -5.3948   -0.5701 H   0  0  0  1  0  0  0  0  0  0  0  0
    7.1043   -5.3120   -1.1372 H   0  0  0  1  0  0  0  0  0  0  0  0
  1  3  1  0  0  0  0
  1 14  2  0  0  0  0
  1 19  1  0  0  0  0
  2  3  1  0  0  0  0
  2 16  1  0  0  0  0
  2 21  1  0  0  0  0
  3  4  1  0  0  0  0
  3 22  1  0  0  0  0
  4  5  1  0  0  0  0
  4 23  1  0  0  0  0
  4 24  1  0  0  0  0
  5  6  4  0  0  0  0
  5 13  4  0  0  0  0
  6  7  4  0  0  0  0
  6 25  1  0  0  0  0
  7  8  4  0  0  0  0
  7 26  1  0  0  0  0
  8  9  4  0  0  0  0
  8 13  4  0  0  0  0
  9 10  4  0  0  0  0
  9 27  1  0  0  0  0
 10 11  4  0  0  0  0
 10 28  1  0  0  0  0
 11 12  4  0  0  0  0
 11 15  1  0  0  0  0
 12 13  4  0  0  0  0
 12 29  1  0  0  0  0
 16 17  2  0  0  0  0
 16 18  1  0  0  0  0
 18 30  1  0  0  0  0
 18 31  1  0  0  0  0
 18 32  1  0  0  0  0
 19 20  1  0  0  0  0
 19 33  1  0  0  0  0
 20 34  1  0  0  0  0
 20 35  1  0  0  0  0
 20 36  1  0  0  0  0
M  END
> <ConfClashScore>
0 

> <ConfOneFourInteractionScore>
-0.960318 

> <ConfScore>
0.426618 

> <ConfScorePBest>
0.0136565 

> <ConfTolerance>
0.440196 

$$$$
5F-TRP.3D.capped.mmff94s.pdb
 OpenBabel09172212003D

 36 37  0  0  0  0  0  0  0  0999 V2000
    6.1064   -1.2502   -0.2367 C   0  0  0  1  0  0  0  0  0  0  0  0
    6.3542   -3.5505    0.6447 N   0  0  0  1  0  0  0  0  0  0  0  0
    5.5822   -2.3190    0.7161 C   0  0  0  1  0  0  0  0  0  0  0  0
    5.5449   -1.7420    2.1218 C   0  0  0  1  0  0  0  0  0  0  0  0
    4.8055   -2.5689    3.1393 C   0  0  0  1  0  0  0  0  0  0  0  0
    4.0269   -3.6623    2.8989 C   0  0  0  1  0  0  0  0  0  0  0  0
    3.5059   -4.1405    4.0739 N   0  0  0  1  0  0  0  0  0  0  0  0
    3.9589   -3.3701    5.1097 C   0  0  0  1  0  0  0  0  0  0  0  0
    3.7219   -3.4623    6.4840 C   0  0  0  1  0  0  0  0  0  0  0  0
    4.3140   -2.5193    7.2958 C   0  0  0  1  0  0  0  0  0  0  0  0
    5.1134   -1.5087    6.7710 C   0  0  0  1  0  0  0  0  0  0  0  0
    5.3526   -1.4202    5.4174 C   0  0  0  1  0  0  0  0  0  0  0  0
    4.7766   -2.3667    4.5630 C   0  0  0  1  0  0  0  0  0  0  0  0
    5.3447   -0.5088   -0.8562 O   0  0  0  1  0  0  0  0  0  0  0  0
    5.6627   -0.6012    7.6008 F   0  0  0  1  0  0  0  0  0  0  0  0
    6.4380   -4.2764   -0.4738 C   0  0  0  1  0  0  0  0  0  0  0  0
    5.9202   -3.9330   -1.5357 O   0  0  0  1  0  0  0  0  0  0  0  0
    7.2181   -5.5668   -0.3624 C   0  0  0  1  0  0  0  0  0  0  0  0
    7.4410   -1.2116   -0.3195 N   0  0  0  1  0  0  0  0  0  0  0  0
    8.0478   -0.1653   -1.1287 C   0  0  0  1  0  0  0  0  0  0  0  0
    6.8290   -3.8581    1.4449 H   0  0  0  1  0  0  0  0  0  0  0  0
    4.5735   -2.5362    0.4327 H   0  0  0  1  0  0  0  0  0  0  0  0
    5.0749   -0.7820    2.0722 H   0  0  0  1  0  0  0  0  0  0  0  0
    6.5541   -1.6286    2.4589 H   0  0  0  1  0  0  0  0  0  0  0  0
    3.8531   -4.0742    1.9598 H   0  0  0  1  0  0  0  0  0  0  0  0
    2.9055   -4.9104    4.1581 H   0  0  0  1  0  0  0  0  0  0  0  0
    3.1215   -4.2141    6.8790 H   0  0  0  1  0  0  0  0  0  0  0  0
    4.1599   -2.5640    8.3234 H   0  0  0  1  0  0  0  0  0  0  0  0
    5.9526   -0.6611    5.0361 H   0  0  0  1  0  0  0  0  0  0  0  0
    6.8121   -6.1625    0.4284 H   0  0  0  1  0  0  0  0  0  0  0  0
    8.2437   -5.3463   -0.1519 H   0  0  0  1  0  0  0  0  0  0  0  0
    7.1504   -6.1049   -1.2847 H   0  0  0  1  0  0  0  0  0  0  0  0
    7.9944   -1.8693    0.1513 H   0  0  0  1  0  0  0  0  0  0  0  0
    7.3862    0.0974   -1.9276 H   0  0  0  1  0  0  0  0  0  0  0  0
    8.9728   -0.5192   -1.5338 H   0  0  0  1  0  0  0  0  0  0  0  0
    8.2306    0.6953   -0.5197 H   0  0  0  1  0  0  0  0  0  0  0  0
  1  3  1  0  0  0  0
  1 14  2  0  0  0  0
  1 19  1  0  0  0  0
  2  3  1  0  0  0  0
  2 16  1  0  0  0  0
  2 21  1  0  0  0  0
  3  4  1  0  0  0  0
  3 22  1  0  0  0  0
  4  5  1  0  0  0  0
  4 23  1  0  0  0  0
  4 24  1  0  0  0  0
  5  6  4  0  0  0  0
  5 13  4  0  0  0  0
  6  7  4  0  0  0  0
  6 25  1  0  0  0  0
  7  8  4  0  0  0  0
  7 26  1  0  0  0  0
  8  9  4  0  0  0  0
  8 13  4  0  0  0  0
  9 10  4  0  0  0  0
  9 27  1  0  0  0  0
 10 11  4  0  0  0  0
 10 28  1  0  0  0  0
 11 12  4  0  0  0  0
 11 15  1  0  0  0  0
 12 13  4  0  0  0  0
 12 29  1  0  0  0  0
 16 17  2  0  0  0  0
 16 18  1  0  0  0  0
 18 30  1  0  0  0  0
 18 31  1  0  0  0  0
 18 32  1  0  0  0  0
 19 20  1  0  0  0  0
 19 33  1  0  0  0  0
 20 34  1  0  0  0  0
 20 35  1  0  0  0  0
 20 36  1  0  0  0  0
M  END
> <ConfClashScore>
0 

> <ConfOneFourInteractionScore>
-0.949001 

> <ConfScore>
0.426965 

> <ConfScorePBest>
0.0135535 

> <ConfTolerance>
0.476263 

$$$$
5F-TRP.3D.capped.mmff94s.pdb
 OpenBabel09172212003D

 36 37  0  0  0  0  0  0  0  0999 V2000
    6.0162    0.6848    1.3987 C   0  0  0  1  0  0  0  0  0  0  0  0
    3.7187   -0.1694    1.5288 N   0  0  0  1  0  0  0  0  0  0  0  0
    5.0732   -0.2678    2.1076 C   0  0  0  1  0  0  0  0  0  0  0  0
    5.5271   -1.7308    2.1196 C   0  0  0  1  0  0  0  0  0  0  0  0
    4.7956   -2.5669    3.1354 C   0  0  0  1  0  0  0  0  0  0  0  0
    4.0169   -3.6791    2.8793 C   0  0  0  1  0  0  0  0  0  0  0  0
    3.5215   -4.1415    4.0681 N   0  0  0  1  0  0  0  0  0  0  0  0
    3.9668   -3.3582    5.1063 C   0  0  0  1  0  0  0  0  0  0  0  0
    3.7152   -3.4592    6.4813 C   0  0  0  1  0  0  0  0  0  0  0  0
    4.3092   -2.5098    7.3165 C   0  0  0  1  0  0  0  0  0  0  0  0
    5.1157   -1.5114    6.7860 C   0  0  0  1  0  0  0  0  0  0  0  0
    5.3624   -1.4174    5.4160 C   0  0  0  1  0  0  0  0  0  0  0  0
    4.7733   -2.3619    4.5528 C   0  0  0  1  0  0  0  0  0  0  0  0
    7.0577    1.0627    1.9335 O   0  0  0  1  0  0  0  0  0  0  0  0
    5.6747   -0.6100    7.6160 F   0  0  0  1  0  0  0  0  0  0  0  0
    3.0132    0.9650    1.5523 C   0  0  0  1  0  0  0  0  0  0  0  0
    3.3918    1.9585    2.1508 O   0  0  0  1  0  0  0  0  0  0  0  0
    1.7424    1.0128    0.7035 C   0  0  0  1  0  0  0  0  0  0  0  0
    5.6939    1.0130    0.1375 N   0  0  0  1  0  0  0  0  0  0  0  0
    6.6083    1.7330   -0.7362 C   0  0  0  1  0  0  0  0  0  0  0  0
    3.3233   -0.9637    1.1129 H   0  0  0  1  0  0  0  0  0  0  0  0
    5.0133    0.0489    3.1280 H   0  0  0  1  0  0  0  0  0  0  0  0
    6.5731   -1.7611    2.3432 H   0  0  0  1  0  0  0  0  0  0  0  0
    5.3571   -2.1481    1.1491 H   0  0  0  1  0  0  0  0  0  0  0  0
    3.8379   -4.0941    1.9426 H   0  0  0  1  0  0  0  0  0  0  0  0
    2.9335   -4.9194    4.1654 H   0  0  0  1  0  0  0  0  0  0  0  0
    3.1093   -4.2123    6.8653 H   0  0  0  1  0  0  0  0  0  0  0  0
    4.1462   -2.5510    8.3428 H   0  0  0  1  0  0  0  0  0  0  0  0
    5.9707   -0.6630    5.0386 H   0  0  0  1  0  0  0  0  0  0  0  0
    1.7801    0.2439   -0.0396 H   0  0  0  1  0  0  0  0  0  0  0  0
    1.6689    1.9672    0.2254 H   0  0  0  1  0  0  0  0  0  0  0  0
    0.8890    0.8608    1.3308 H   0  0  0  1  0  0  0  0  0  0  0  0
    4.8123    0.7589   -0.2068 H   0  0  0  1  0  0  0  0  0  0  0  0
    7.3725    2.1974   -0.1487 H   0  0  0  1  0  0  0  0  0  0  0  0
    6.0689    2.4828   -1.2764 H   0  0  0  1  0  0  0  0  0  0  0  0
    7.0557    1.0482   -1.4260 H   0  0  0  1  0  0  0  0  0  0  0  0
  1  3  1  0  0  0  0
  1 14  2  0  0  0  0
  1 19  1  0  0  0  0
  2  3  1  0  0  0  0
  2 16  1  0  0  0  0
  2 21  1  0  0  0  0
  3  4  1  0  0  0  0
  3 22  1  0  0  0  0
  4  5  1  0  0  0  0
  4 23  1  0  0  0  0
  4 24  1  0  0  0  0
  5  6  4  0  0  0  0
  5 13  4  0  0  0  0
  6  7  4  0  0  0  0
  6 25  1  0  0  0  0
  7  8  4  0  0  0  0
  7 26  1  0  0  0  0
  8  9  4  0  0  0  0
  8 13  4  0  0  0  0
  9 10  4  0  0  0  0
  9 27  1  0  0  0  0
 10 11  4  0  0  0  0
 10 28  1  0  0  0  0
 11 12  4  0  0  0  0
 11 15  1  0  0  0  0
 12 13  4  0  0  0  0
 12 29  1  0  0  0  0
 16 17  2  0  0  0  0
 16 18  1  0  0  0  0
 18 30  1  0  0  0  0
 18 31  1  0  0  0  0
 18 32  1  0  0  0  0
 19 20  1  0  0  0  0
 19 33  1  0  0  0  0
 20 34  1  0  0  0  0
 20 35  1  0  0  0  0
 20 36  1  0  0  0  0
M  END
> <ConfClashScore>
0 

> <ConfOneFourInteractionScore>
-0.956443 

> <ConfScore>
0.447253 

> <ConfScorePBest>
0.0134505 

> <ConfTolerance>
0.386494 

$$$$
5F-TRP.3D.capped.mmff94s.pdb
 OpenBabel09172212003D

 36 37  0  0  0  0  0  0  0  0999 V2000
    5.4780    0.2239    0.6373 C   0  0  0  1  0  0  0  0  0  0  0  0
    3.8483   -1.5595    0.3163 N   0  0  0  1  0  0  0  0  0  0  0  0
    4.6283   -0.8379    1.3079 C   0  0  0  1  0  0  0  0  0  0  0  0
    5.5449   -1.7420    2.1218 C   0  0  0  1  0  0  0  0  0  0  0  0
    4.8055   -2.5689    3.1393 C   0  0  0  1  0  0  0  0  0  0  0  0
    4.0269   -3.6623    2.8989 C   0  0  0  1  0  0  0  0  0  0  0  0
    3.5059   -4.1405    4.0739 N   0  0  0  1  0  0  0  0  0  0  0  0
    3.9589   -3.3701    5.1097 C   0  0  0  1  0  0  0  0  0  0  0  0
    3.7219   -3.4623    6.4840 C   0  0  0  1  0  0  0  0  0  0  0  0
    4.3140   -2.5193    7.2958 C   0  0  0  1  0  0  0  0  0  0  0  0
    5.1134   -1.5087    6.7710 C   0  0  0  1  0  0  0  0  0  0  0  0
    5.3526   -1.4202    5.4174 C   0  0  0  1  0  0  0  0  0  0  0  0
    4.7766   -2.3667    4.5630 C   0  0  0  1  0  0  0  0  0  0  0  0
    5.6676    1.3084    1.1631 O   0  0  0  1  0  0  0  0  0  0  0  0
    5.6627   -0.6012    7.6008 F   0  0  0  1  0  0  0  0  0  0  0  0
    3.1153   -0.9345   -0.6063 C   0  0  0  1  0  0  0  0  0  0  0  0
    3.0313    0.2909   -0.6780 O   0  0  0  1  0  0  0  0  0  0  0  0
    2.3771   -1.8321   -1.5803 C   0  0  0  1  0  0  0  0  0  0  0  0
    5.9938   -0.1093   -0.5493 N   0  0  0  1  0  0  0  0  0  0  0  0
    6.7837    0.8206   -1.3424 C   0  0  0  1  0  0  0  0  0  0  0  0
    3.8614   -2.5394    0.3259 H   0  0  0  1  0  0  0  0  0  0  0  0
    3.9606   -0.3499    1.9868 H   0  0  0  1  0  0  0  0  0  0  0  0
    6.2591   -1.1311    2.6334 H   0  0  0  1  0  0  0  0  0  0  0  0
    6.0546   -2.4023    1.4517 H   0  0  0  1  0  0  0  0  0  0  0  0
    3.8531   -4.0742    1.9598 H   0  0  0  1  0  0  0  0  0  0  0  0
    2.9055   -4.9104    4.1581 H   0  0  0  1  0  0  0  0  0  0  0  0
    3.1215   -4.2141    6.8790 H   0  0  0  1  0  0  0  0  0  0  0  0
    4.1599   -2.5640    8.3234 H   0  0  0  1  0  0  0  0  0  0  0  0
    5.9526   -0.6611    5.0361 H   0  0  0  1  0  0  0  0  0  0  0  0
    2.3224   -1.3536   -2.5358 H   0  0  0  1  0  0  0  0  0  0  0  0
    1.3878   -2.0155   -1.2164 H   0  0  0  1  0  0  0  0  0  0  0  0
    2.9004   -2.7605   -1.6761 H   0  0  0  1  0  0  0  0  0  0  0  0
    5.8347   -1.0114   -0.8976 H   0  0  0  1  0  0  0  0  0  0  0  0
    6.4555    1.8210   -1.1517 H   0  0  0  1  0  0  0  0  0  0  0  0
    6.6603    0.5970   -2.3815 H   0  0  0  1  0  0  0  0  0  0  0  0
    7.8162    0.7276   -1.0772 H   0  0  0  1  0  0  0  0  0  0  0  0
  1  3  1  0  0  0  0
  1 14  2  0  0  0  0
  1 19  1  0  0  0  0
  2  3  1  0  0  0  0
  2 16  1  0  0  0  0
  2 21  1  0  0  0  0
  3  4  1  0  0  0  0
  3 22  1  0  0  0  0
  4  5  1  0  0  0  0
  4 23  1  0  0  0  0
  4 24  1  0  0  0  0
  5  6  4  0  0  0  0
  5 13  4  0  0  0  0
  6  7  4  0  0  0  0
  6 25  1  0  0  0  0
  7  8  4  0  0  0  0
  7 26  1  0  0  0  0
  8  9  4  0  0  0  0
  8 13  4  0  0  0  0
  9 10  4  0  0  0  0
  9 27  1  0  0  0  0
 10 11  4  0  0  0  0
 10 28  1  0  0  0  0
 11 12  4  0  0  0  0
 11 15  1  0  0  0  0
 12 13  4  0  0  0  0
 12 29  1  0  0  0  0
 16 17  2  0  0  0  0
 16 18  1  0  0  0  0
 18 30  1  0  0  0  0
 18 31  1  0  0  0  0
 18 32  1  0  0  0  0
 19 20  1  0  0  0  0
 19 33  1  0  0  0  0
 20 34  1  0  0  0  0
 20 35  1  0  0  0  0
 20 36  1  0  0  0  0
M  END
> <ConfClashScore>
0 

> <ConfOneFourInteractionScore>
-0.956443 

> <ConfScore>
0.447551 

> <ConfScorePBest>
0.0133475 

> <ConfTolerance>
0.556878 

$$$$
5F-TRP.3D.capped.mmff94s.pdb
 OpenBabel09172212003D

 36 37  0  0  0  0  0  0  0  0999 V2000
    7.5383   -1.4753    0.6630 C   0  0  0  1  0  0  0  0  0  0  0  0
    7.6588   -2.7632    2.7838 N   0  0  0  1  0  0  0  0  0  0  0  0
    6.8384   -2.4030    1.6370 C   0  0  0  1  0  0  0  0  0  0  0  0
    5.5449   -1.7420    2.1218 C   0  0  0  1  0  0  0  0  0  0  0  0
    4.8055   -2.5689    3.1393 C   0  0  0  1  0  0  0  0  0  0  0  0
    4.0269   -3.6623    2.8989 C   0  0  0  1  0  0  0  0  0  0  0  0
    3.5059   -4.1405    4.0739 N   0  0  0  1  0  0  0  0  0  0  0  0
    3.9589   -3.3701    5.1097 C   0  0  0  1  0  0  0  0  0  0  0  0
    3.7219   -3.4623    6.4840 C   0  0  0  1  0  0  0  0  0  0  0  0
    4.3140   -2.5193    7.2958 C   0  0  0  1  0  0  0  0  0  0  0  0
    5.1134   -1.5087    6.7710 C   0  0  0  1  0  0  0  0  0  0  0  0
    5.3526   -1.4202    5.4174 C   0  0  0  1  0  0  0  0  0  0  0  0
    4.7766   -2.3667    4.5630 C   0  0  0  1  0  0  0  0  0  0  0  0
    6.9304   -0.9505   -0.2662 O   0  0  0  1  0  0  0  0  0  0  0  0
    5.6627   -0.6012    7.6008 F   0  0  0  1  0  0  0  0  0  0  0  0
    8.3672   -3.9057    2.8983 C   0  0  0  1  0  0  0  0  0  0  0  0
    8.2278   -4.8236    2.0910 O   0  0  0  1  0  0  0  0  0  0  0  0
    9.3396   -4.0267    4.0497 C   0  0  0  1  0  0  0  0  0  0  0  0
    8.8403   -1.2749    0.8859 N   0  0  0  1  0  0  0  0  0  0  0  0
    9.6386   -0.3717    0.0705 C   0  0  0  1  0  0  0  0  0  0  0  0
    7.6998   -2.1280    3.5289 H   0  0  0  1  0  0  0  0  0  0  0  0
    6.5722   -3.2955    1.1102 H   0  0  0  1  0  0  0  0  0  0  0  0
    4.9047   -1.5873    1.2785 H   0  0  0  1  0  0  0  0  0  0  0  0
    5.7893   -0.7981    2.5626 H   0  0  0  1  0  0  0  0  0  0  0  0
    3.8531   -4.0742    1.9598 H   0  0  0  1  0  0  0  0  0  0  0  0
    2.9055   -4.9104    4.1581 H   0  0  0  1  0  0  0  0  0  0  0  0
    3.1215   -4.2141    6.8790 H   0  0  0  1  0  0  0  0  0  0  0  0
    4.1599   -2.5640    8.3234 H   0  0  0  1  0  0  0  0  0  0  0  0
    5.9526   -0.6611    5.0361 H   0  0  0  1  0  0  0  0  0  0  0  0
   10.1220   -3.3061    3.9337 H   0  0  0  1  0  0  0  0  0  0  0  0
    9.7599   -5.0107    4.0594 H   0  0  0  1  0  0  0  0  0  0  0  0
    8.8251   -3.8490    4.9709 H   0  0  0  1  0  0  0  0  0  0  0  0
    9.2728   -1.7527    1.6242 H   0  0  0  1  0  0  0  0  0  0  0  0
    9.2270   -0.3230   -0.9160 H   0  0  0  1  0  0  0  0  0  0  0  0
   10.6446   -0.7327    0.0195 H   0  0  0  1  0  0  0  0  0  0  0  0
    9.6312    0.6045    0.5084 H   0  0  0  1  0  0  0  0  0  0  0  0
  1  3  1  0  0  0  0
  1 14  2  0  0  0  0
  1 19  1  0  0  0  0
  2  3  1  0  0  0  0
  2 16  1  0  0  0  0
  2 21  1  0  0  0  0
  3  4  1  0  0  0  0
  3 22  1  0  0  0  0
  4  5  1  0  0  0  0
  4 23  1  0  0  0  0
  4 24  1  0  0  0  0
  5  6  4  0  0  0  0
  5 13  4  0  0  0  0
  6  7  4  0  0  0  0
  6 25  1  0  0  0  0
  7  8  4  0  0  0  0
  7 26  1  0  0  0  0
  8  9  4  0  0  0  0
  8 13  4  0  0  0  0
  9 10  4  0  0  0  0
  9 27  1  0  0  0  0
 10 11  4  0  0  0  0
 10 28  1  0  0  0  0
 11 12  4  0  0  0  0
 11 15  1  0  0  0  0
 12 13  4  0  0  0  0
 12 29  1  0  0  0  0
 16 17  2  0  0  0  0
 16 18  1  0  0  0  0
 18 30  1  0  0  0  0
 18 31  1  0  0  0  0
 18 32  1  0  0  0  0
 19 20  1  0  0  0  0
 19 33  1  0  0  0  0
 20 34  1  0  0  0  0
 20 35  1  0  0  0  0
 20 36  1  0  0  0  0
M  END
> <ConfClashScore>
0 

> <ConfOneFourInteractionScore>
-0.94165 

> <ConfScore>
0.462568 

> <ConfScorePBest>
0.0132445 

> <ConfTolerance>
0.38208 

$$$$
5F-TRP.3D.capped.mmff94s.pdb
 OpenBabel09172212003D

 36 37  0  0  0  0  0  0  0  0999 V2000
    5.5515    0.0615    0.4122 C   0  0  0  1  0  0  0  0  0  0  0  0
    3.5215   -1.2337    0.8227 N   0  0  0  1  0  0  0  0  0  0  0  0
    4.6942   -0.6456    1.4438 C   0  0  0  1  0  0  0  0  0  0  0  0
    5.5271   -1.7308    2.1196 C   0  0  0  1  0  0  0  0  0  0  0  0
    4.7956   -2.5669    3.1354 C   0  0  0  1  0  0  0  0  0  0  0  0
    4.0169   -3.6791    2.8793 C   0  0  0  1  0  0  0  0  0  0  0  0
    3.5215   -4.1415    4.0681 N   0  0  0  1  0  0  0  0  0  0  0  0
    3.9668   -3.3582    5.1063 C   0  0  0  1  0  0  0  0  0  0  0  0
    3.7152   -3.4592    6.4813 C   0  0  0  1  0  0  0  0  0  0  0  0
    4.3092   -2.5098    7.3165 C   0  0  0  1  0  0  0  0  0  0  0  0
    5.1157   -1.5114    6.7860 C   0  0  0  1  0  0  0  0  0  0  0  0
    5.3624   -1.4174    5.4160 C   0  0  0  1  0  0  0  0  0  0  0  0
    4.7733   -2.3619    4.5528 C   0  0  0  1  0  0  0  0  0  0  0  0
    6.1361    1.1083    0.6881 O   0  0  0  1  0  0  0  0  0  0  0  0
    5.6747   -0.6100    7.6160 F   0  0  0  1  0  0  0  0  0  0  0  0
    2.4099   -0.5330    0.5931 C   0  0  0  1  0  0  0  0  0  0  0  0
    2.3083    0.6551    0.8509 O   0  0  0  1  0  0  0  0  0  0  0  0
    1.2576   -1.3071   -0.0171 C   0  0  0  1  0  0  0  0  0  0  0  0
    5.6527   -0.4883   -0.8083 N   0  0  0  1  0  0  0  0  0  0  0  0
    6.4890    0.0848   -1.8523 C   0  0  0  1  0  0  0  0  0  0  0  0
    3.5472   -2.1783    0.5631 H   0  0  0  1  0  0  0  0  0  0  0  0
    4.3911    0.0643    2.1848 H   0  0  0  1  0  0  0  0  0  0  0  0
    6.3495   -1.2564    2.6131 H   0  0  0  1  0  0  0  0  0  0  0  0
    5.8969   -2.3853    1.3581 H   0  0  0  1  0  0  0  0  0  0  0  0
    3.8379   -4.0941    1.9426 H   0  0  0  1  0  0  0  0  0  0  0  0
    2.9335   -4.9194    4.1654 H   0  0  0  1  0  0  0  0  0  0  0  0
    3.1093   -4.2123    6.8653 H   0  0  0  1  0  0  0  0  0  0  0  0
    4.1462   -2.5510    8.3428 H   0  0  0  1  0  0  0  0  0  0  0  0
    5.9707   -0.6630    5.0386 H   0  0  0  1  0  0  0  0  0  0  0  0
    0.4301   -1.3097    0.6613 H   0  0  0  1  0  0  0  0  0  0  0  0
    1.5657   -2.3140   -0.2073 H   0  0  0  1  0  0  0  0  0  0  0  0
    0.9638   -0.8439   -0.9358 H   0  0  0  1  0  0  0  0  0  0  0  0
    5.1457   -1.3041   -1.0030 H   0  0  0  1  0  0  0  0  0  0  0  0
    6.3856    1.1498   -1.8483 H   0  0  0  1  0  0  0  0  0  0  0  0
    6.1849   -0.2992   -2.8035 H   0  0  0  1  0  0  0  0  0  0  0  0
    7.5114   -0.1747   -1.6725 H   0  0  0  1  0  0  0  0  0  0  0  0
  1  3  1  0  0  0  0
  1 14  2  0  0  0  0
  1 19  1  0  0  0  0
  2  3  1  0  0  0  0
  2 16  1  0  0  0  0
  2 21  1  0  0  0  0
  3  4  1  0  0  0  0
  3 22  1  0  0  0  0
  4  5  1  0  0  0  0
  4 23  1  0  0  0  0
  4 24  1  0  0  0  0
  5  6  4  0  0  0  0
  5 13  4  0  0  0  0
  6  7  4  0  0  0  0
  6 25  1  0  0  0  0
  7  8  4  0  0  0  0
  7 26  1  0  0  0  0
  8  9  4  0  0  0  0
  8 13  4  0  0  0  0
  9 10  4  0  0  0  0
  9 27  1  0  0  0  0
 10 11  4  0  0  0  0
 10 28  1  0  0  0  0
 11 12  4  0  0  0  0
 11 15  1  0  0  0  0
 12 13  4  0  0  0  0
 12 29  1  0  0  0  0
 16 17  2  0  0  0  0
 16 18  1  0  0  0  0
 18 30  1  0  0  0  0
 18 31  1  0  0  0  0
 18 32  1  0  0  0  0
 19 20  1  0  0  0  0
 19 33  1  0  0  0  0
 20 34  1  0  0  0  0
 20 35  1  0  0  0  0
 20 36  1  0  0  0  0
M  END
> <ConfClashScore>
0 

> <ConfOneFourInteractionScore>
-0.960318 

> <ConfScore>
0.471317 

> <ConfScorePBest>
0.0131415 

> <ConfTolerance>
0.498993 

$$$$
5F-TRP.3D.capped.mmff94s.pdb
 OpenBabel09172212003D

 36 37  0  0  0  0  0  0  0  0999 V2000
    7.6974   -3.0654    2.2405 C   0  0  0  1  0  0  0  0  0  0  0  0
    7.7164   -0.7382    1.5762 N   0  0  0  1  0  0  0  0  0  0  0  0
    7.0298   -1.7095    2.4146 C   0  0  0  1  0  0  0  0  0  0  0  0
    5.5271   -1.7308    2.1196 C   0  0  0  1  0  0  0  0  0  0  0  0
    4.7956   -2.5669    3.1354 C   0  0  0  1  0  0  0  0  0  0  0  0
    4.0169   -3.6791    2.8793 C   0  0  0  1  0  0  0  0  0  0  0  0
    3.5215   -4.1415    4.0681 N   0  0  0  1  0  0  0  0  0  0  0  0
    3.9668   -3.3582    5.1063 C   0  0  0  1  0  0  0  0  0  0  0  0
    3.7152   -3.4592    6.4813 C   0  0  0  1  0  0  0  0  0  0  0  0
    4.3092   -2.5098    7.3165 C   0  0  0  1  0  0  0  0  0  0  0  0
    5.1157   -1.5114    6.7860 C   0  0  0  1  0  0  0  0  0  0  0  0
    5.3624   -1.4174    5.4160 C   0  0  0  1  0  0  0  0  0  0  0  0
    4.7733   -2.3619    4.5528 C   0  0  0  1  0  0  0  0  0  0  0  0
    7.6301   -3.9382    3.0867 O   0  0  0  1  0  0  0  0  0  0  0  0
    5.6747   -0.6100    7.6160 F   0  0  0  1  0  0  0  0  0  0  0  0
    9.0438   -0.5877    1.5988 C   0  0  0  1  0  0  0  0  0  0  0  0
    9.7946   -1.3532    2.2021 O   0  0  0  1  0  0  0  0  0  0  0  0
    9.5853    0.5996    0.8266 C   0  0  0  1  0  0  0  0  0  0  0  0
    8.3822   -3.3120    1.1227 N   0  0  0  1  0  0  0  0  0  0  0  0
    9.0529   -4.5667    0.8163 C   0  0  0  1  0  0  0  0  0  0  0  0
    7.1868   -0.1749    0.9740 H   0  0  0  1  0  0  0  0  0  0  0  0
    7.1517   -1.4186    3.4370 H   0  0  0  1  0  0  0  0  0  0  0  0
    5.3667   -2.1427    1.1452 H   0  0  0  1  0  0  0  0  0  0  0  0
    5.1492   -0.7303    2.1511 H   0  0  0  1  0  0  0  0  0  0  0  0
    3.8379   -4.0941    1.9426 H   0  0  0  1  0  0  0  0  0  0  0  0
    2.9335   -4.9194    4.1654 H   0  0  0  1  0  0  0  0  0  0  0  0
    3.1093   -4.2123    6.8653 H   0  0  0  1  0  0  0  0  0  0  0  0
    4.1462   -2.5510    8.3428 H   0  0  0  1  0  0  0  0  0  0  0  0
    5.9707   -0.6630    5.0386 H   0  0  0  1  0  0  0  0  0  0  0  0
    8.9985    1.4668    1.0469 H   0  0  0  1  0  0  0  0  0  0  0  0
    9.5378    0.3942   -0.2224 H   0  0  0  1  0  0  0  0  0  0  0  0
   10.6019    0.7757    1.1104 H   0  0  0  1  0  0  0  0  0  0  0  0
    8.4379   -2.5943    0.4577 H   0  0  0  1  0  0  0  0  0  0  0  0
    8.3948   -5.3839    1.0255 H   0  0  0  1  0  0  0  0  0  0  0  0
    9.9340   -4.6558    1.4168 H   0  0  0  1  0  0  0  0  0  0  0  0
    9.3232   -4.5828   -0.2189 H   0  0  0  1  0  0  0  0  0  0  0  0
  1  3  1  0  0  0  0
  1 14  2  0  0  0  0
  1 19  1  0  0  0  0
  2  3  1  0  0  0  0
  2 16  1  0  0  0  0
  2 21  1  0  0  0  0
  3  4  1  0  0  0  0
  3 22  1  0  0  0  0
  4  5  1  0  0  0  0
  4 23  1  0  0  0  0
  4 24  1  0  0  0  0
  5  6  4  0  0  0  0
  5 13  4  0  0  0  0
  6  7  4  0  0  0  0
  6 25  1  0  0  0  0
  7  8  4  0  0  0  0
  7 26  1  0  0  0  0
  8  9  4  0  0  0  0
  8 13  4  0  0  0  0
  9 10  4  0  0  0  0
  9 27  1  0  0  0  0
 10 11  4  0  0  0  0
 10 28  1  0  0  0  0
 11 12  4  0  0  0  0
 11 15  1  0  0  0  0
 12 13  4  0  0  0  0
 12 29  1  0  0  0  0
 16 17  2  0  0  0  0
 16 18  1  0  0  0  0
 18 30  1  0  0  0  0
 18 31  1  0  0  0  0
 18 32  1  0  0  0  0
 19 20  1  0  0  0  0
 19 33  1  0  0  0  0
 20 34  1  0  0  0  0
 20 35  1  0  0  0  0
 20 36  1  0  0  0  0
M  END
> <ConfClashScore>
0 

> <ConfOneFourInteractionScore>
-0.960318 

> <ConfScore>
0.473443 

> <ConfScorePBest>
0.0130385 

> <ConfTolerance>
0.581117 

$$$$
5F-TRP.3D.capped.mmff94s.pdb
 OpenBabel09172212003D

 36 37  0  0  0  0  0  0  0  0999 V2000
    5.5205    0.3153    0.6362 C   0  0  0  1  0  0  0  0  0  0  0  0
    3.5121   -0.9370    1.0041 N   0  0  0  1  0  0  0  0  0  0  0  0
    4.7525   -0.5307    1.6478 C   0  0  0  1  0  0  0  0  0  0  0  0
    5.5449   -1.7420    2.1218 C   0  0  0  1  0  0  0  0  0  0  0  0
    4.8055   -2.5689    3.1393 C   0  0  0  1  0  0  0  0  0  0  0  0
    4.0269   -3.6623    2.8989 C   0  0  0  1  0  0  0  0  0  0  0  0
    3.5059   -4.1405    4.0739 N   0  0  0  1  0  0  0  0  0  0  0  0
    3.9589   -3.3701    5.1097 C   0  0  0  1  0  0  0  0  0  0  0  0
    3.7219   -3.4623    6.4840 C   0  0  0  1  0  0  0  0  0  0  0  0
    4.3140   -2.5193    7.2958 C   0  0  0  1  0  0  0  0  0  0  0  0
    5.1134   -1.5087    6.7710 C   0  0  0  1  0  0  0  0  0  0  0  0
    5.3526   -1.4202    5.4174 C   0  0  0  1  0  0  0  0  0  0  0  0
    4.7766   -2.3667    4.5630 C   0  0  0  1  0  0  0  0  0  0  0  0
    5.5464    0.0063   -0.5544 O   0  0  0  1  0  0  0  0  0  0  0  0
    5.6627   -0.6012    7.6008 F   0  0  0  1  0  0  0  0  0  0  0  0
    2.3180   -0.7494    1.5732 C   0  0  0  1  0  0  0  0  0  0  0  0
    2.1735   -0.1832    2.6535 O   0  0  0  1  0  0  0  0  0  0  0  0
    1.1283   -1.2831    0.7992 C   0  0  0  1  0  0  0  0  0  0  0  0
    6.1649    1.4036    1.0841 N   0  0  0  1  0  0  0  0  0  0  0  0
    6.9645    2.2067    0.1711 C   0  0  0  1  0  0  0  0  0  0  0  0
    3.5543   -1.3629    0.1225 H   0  0  0  1  0  0  0  0  0  0  0  0
    4.5286    0.0783    2.4986 H   0  0  0  1  0  0  0  0  0  0  0  0
    6.4594   -1.4005    2.5600 H   0  0  0  1  0  0  0  0  0  0  0  0
    5.7630   -2.3588    1.2751 H   0  0  0  1  0  0  0  0  0  0  0  0
    3.8531   -4.0742    1.9598 H   0  0  0  1  0  0  0  0  0  0  0  0
    2.9055   -4.9104    4.1581 H   0  0  0  1  0  0  0  0  0  0  0  0
    3.1215   -4.2141    6.8790 H   0  0  0  1  0  0  0  0  0  0  0  0
    4.1599   -2.5640    8.3234 H   0  0  0  1  0  0  0  0  0  0  0  0
    5.9526   -0.6611    5.0361 H   0  0  0  1  0  0  0  0  0  0  0  0
    1.2410   -1.0451   -0.2379 H   0  0  0  1  0  0  0  0  0  0  0  0
    0.2307   -0.8356    1.1721 H   0  0  0  1  0  0  0  0  0  0  0  0
    1.0737   -2.3452    0.9173 H   0  0  0  1  0  0  0  0  0  0  0  0
    6.0971    1.6582    2.0280 H   0  0  0  1  0  0  0  0  0  0  0  0
    6.6434    2.0307   -0.8343 H   0  0  0  1  0  0  0  0  0  0  0  0
    7.9954    1.9367    0.2683 H   0  0  0  1  0  0  0  0  0  0  0  0
    6.8428    3.2430    0.4079 H   0  0  0  1  0  0  0  0  0  0  0  0
  1  3  1  0  0  0  0
  1 14  2  0  0  0  0
  1 19  1  0  0  0  0
  2  3  1  0  0  0  0
  2 16  1  0  0  0  0
  2 21  1  0  0  0  0
  3  4  1  0  0  0  0
  3 22  1  0  0  0  0
  4  5  1  0  0  0  0
  4 23  1  0  0  0  0
  4 24  1  0  0  0  0
  5  6  4  0  0  0  0
  5 13  4  0  0  0  0
  6  7  4  0  0  0  0
  6 25  1  0  0  0  0
  7  8  4  0  0  0  0
  7 26  1  0  0  0  0
  8  9  4  0  0  0  0
  8 13  4  0  0  0  0
  9 10  4  0  0  0  0
  9 27  1  0  0  0  0
 10 11  4  0  0  0  0
 10 28  1  0  0  0  0
 11 12  4  0  0  0  0
 11 15  1  0  0  0  0
 12 13  4  0  0  0  0
 12 29  1  0  0  0  0
 16 17  2  0  0  0  0
 16 18  1  0  0  0  0
 18 30  1  0  0  0  0
 18 31  1  0  0  0  0
 18 32  1  0  0  0  0
 19 20  1  0  0  0  0
 19 33  1  0  0  0  0
 20 34  1  0  0  0  0
 20 35  1  0  0  0  0
 20 36  1  0  0  0  0
M  END
> <ConfClashScore>
0 

> <ConfOneFourInteractionScore>
-0.986627 

> <ConfScore>
0.477445 

> <ConfScorePBest>
0.0129355 

> <ConfTolerance>
0.278113 

$$$$
5F-TRP.3D.capped.mmff94s.pdb
 OpenBabel09172212003D

 36 37  0  0  0  0  0  0  0  0999 V2000
    5.4968   -0.3800    0.0525 C   0  0  0  1  0  0  0  0  0  0  0  0
    4.7972   -2.7309    0.0228 N   0  0  0  1  0  0  0  0  0  0  0  0
    4.8087   -1.5086    0.8127 C   0  0  0  1  0  0  0  0  0  0  0  0
    5.5449   -1.7420    2.1218 C   0  0  0  1  0  0  0  0  0  0  0  0
    4.8055   -2.5689    3.1393 C   0  0  0  1  0  0  0  0  0  0  0  0
    4.0269   -3.6623    2.8989 C   0  0  0  1  0  0  0  0  0  0  0  0
    3.5059   -4.1405    4.0739 N   0  0  0  1  0  0  0  0  0  0  0  0
    3.9589   -3.3701    5.1097 C   0  0  0  1  0  0  0  0  0  0  0  0
    3.7219   -3.4623    6.4840 C   0  0  0  1  0  0  0  0  0  0  0  0
    4.3140   -2.5193    7.2958 C   0  0  0  1  0  0  0  0  0  0  0  0
    5.1134   -1.5087    6.7710 C   0  0  0  1  0  0  0  0  0  0  0  0
    5.3526   -1.4202    5.4174 C   0  0  0  1  0  0  0  0  0  0  0  0
    4.7766   -2.3667    4.5630 C   0  0  0  1  0  0  0  0  0  0  0  0
    5.1428    0.7903    0.1892 O   0  0  0  1  0  0  0  0  0  0  0  0
    5.6627   -0.6012    7.6008 F   0  0  0  1  0  0  0  0  0  0  0  0
    4.0436   -2.8659   -1.0721 C   0  0  0  1  0  0  0  0  0  0  0  0
    3.1852   -2.0477   -1.3997 O   0  0  0  1  0  0  0  0  0  0  0  0
    4.3095   -4.1119   -1.9096 C   0  0  0  1  0  0  0  0  0  0  0  0
    6.4933   -0.7489   -0.7573 N   0  0  0  1  0  0  0  0  0  0  0  0
    7.3587    0.1827   -1.4652 C   0  0  0  1  0  0  0  0  0  0  0  0
    5.3619   -3.4809    0.3038 H   0  0  0  1  0  0  0  0  0  0  0  0
    3.8043   -1.2126    1.0328 H   0  0  0  1  0  0  0  0  0  0  0  0
    5.7512   -0.7874    2.5591 H   0  0  0  1  0  0  0  0  0  0  0  0
    6.4658   -2.2391    1.8986 H   0  0  0  1  0  0  0  0  0  0  0  0
    3.8531   -4.0742    1.9598 H   0  0  0  1  0  0  0  0  0  0  0  0
    2.9055   -4.9104    4.1581 H   0  0  0  1  0  0  0  0  0  0  0  0
    3.1215   -4.2141    6.8790 H   0  0  0  1  0  0  0  0  0  0  0  0
    4.1599   -2.5640    8.3234 H   0  0  0  1  0  0  0  0  0  0  0  0
    5.9526   -0.6611    5.0361 H   0  0  0  1  0  0  0  0  0  0  0  0
    4.2843   -4.9771   -1.2806 H   0  0  0  1  0  0  0  0  0  0  0  0
    5.2725   -4.0335   -2.3694 H   0  0  0  1  0  0  0  0  0  0  0  0
    3.5583   -4.1995   -2.6666 H   0  0  0  1  0  0  0  0  0  0  0  0
    6.6516   -1.7078   -0.8827 H   0  0  0  1  0  0  0  0  0  0  0  0
    7.8313    0.8361   -0.7618 H   0  0  0  1  0  0  0  0  0  0  0  0
    6.7752    0.7601   -2.1515 H   0  0  0  1  0  0  0  0  0  0  0  0
    8.1059   -0.3630   -2.0026 H   0  0  0  1  0  0  0  0  0  0  0  0
  1  3  1  0  0  0  0
  1 14  2  0  0  0  0
  1 19  1  0  0  0  0
  2  3  1  0  0  0  0
  2 16  1  0  0  0  0
  2 21  1  0  0  0  0
  3  4  1  0  0  0  0
  3 22  1  0  0  0  0
  4  5  1  0  0  0  0
  4 23  1  0  0  0  0
  4 24  1  0  0  0  0
  5  6  4  0  0  0  0
  5 13  4  0  0  0  0
  6  7  4  0  0  0  0
  6 25  1  0  0  0  0
  7  8  4  0  0  0  0
  7 26  1  0  0  0  0
  8  9  4  0  0  0  0
  8 13  4  0  0  0  0
  9 10  4  0  0  0  0
  9 27  1  0  0  0  0
 10 11  4  0  0  0  0
 10 28  1  0  0  0  0
 11 12  4  0  0  0  0
 11 15  1  0  0  0  0
 12 13  4  0  0  0  0
 12 29  1  0  0  0  0
 16 17  2  0  0  0  0
 16 18  1  0  0  0  0
 18 30  1  0  0  0  0
 18 31  1  0  0  0  0
 18 32  1  0  0  0  0
 19 20  1  0  0  0  0
 19 33  1  0  0  0  0
 20 34  1  0  0  0  0
 20 35  1  0  0  0  0
 20 36  1  0  0  0  0
M  END
> <ConfClashScore>
0 

> <ConfOneFourInteractionScore>
-0.956443 

> <ConfScore>
0.478541 

> <ConfScorePBest>
0.0128325 

> <ConfTolerance>
0.759482 

$$$$
5F-TRP.3D.capped.mmff94s.pdb
 OpenBabel09172212003D

 36 37  0  0  0  0  0  0  0  0999 V2000
    5.4056    0.5467    3.2001 C   0  0  0  1  0  0  0  0  0  0  0  0
    5.5034    0.3112    0.7889 N   0  0  0  1  0  0  0  0  0  0  0  0
    4.9830   -0.3024    2.0016 C   0  0  0  1  0  0  0  0  0  0  0  0
    5.5315   -1.7259    2.1130 C   0  0  0  1  0  0  0  0  0  0  0  0
    4.7952   -2.5674    3.1358 C   0  0  0  1  0  0  0  0  0  0  0  0
    4.0164   -3.6796    2.8798 C   0  0  0  1  0  0  0  0  0  0  0  0
    3.5211   -4.1419    4.0688 N   0  0  0  1  0  0  0  0  0  0  0  0
    3.9665   -3.3586    5.1068 C   0  0  0  1  0  0  0  0  0  0  0  0
    3.7150   -3.4594    6.4818 C   0  0  0  1  0  0  0  0  0  0  0  0
    4.3090   -2.5100    7.3169 C   0  0  0  1  0  0  0  0  0  0  0  0
    5.1156   -1.5116    6.7862 C   0  0  0  1  0  0  0  0  0  0  0  0
    5.3621   -1.4178    5.4162 C   0  0  0  1  0  0  0  0  0  0  0  0
    4.7730   -2.3623    4.5531 C   0  0  0  1  0  0  0  0  0  0  0  0
    4.6420    0.7243    4.1483 O   0  0  0  1  0  0  0  0  0  0  0  0
    5.6746   -0.6101    7.6162 F   0  0  0  1  0  0  0  0  0  0  0  0
    5.1771    1.5594    0.4204 C   0  0  0  1  0  0  0  0  0  0  0  0
    4.4734    2.2684    1.1349 O   0  0  0  1  0  0  0  0  0  0  0  0
    5.7031    2.0715   -0.9064 C   0  0  0  1  0  0  0  0  0  0  0  0
    6.6267    1.0888    3.1864 N   0  0  0  1  0  0  0  0  0  0  0  0
    7.0397    2.0989    4.1493 C   0  0  0  1  0  0  0  0  0  0  0  0
    6.1134   -0.2051    0.2218 H   0  0  0  1  0  0  0  0  0  0  0  0
    3.9145   -0.3428    1.9622 H   0  0  0  1  0  0  0  0  0  0  0  0
    6.5624   -1.6725    2.3946 H   0  0  0  1  0  0  0  0  0  0  0  0
    5.4463   -2.1995    1.1574 H   0  0  0  1  0  0  0  0  0  0  0  0
    3.8373   -4.0947    1.9432 H   0  0  0  1  0  0  0  0  0  0  0  0
    2.9331   -4.9199    4.1662 H   0  0  0  1  0  0  0  0  0  0  0  0
    3.1091   -4.2124    6.8659 H   0  0  0  1  0  0  0  0  0  0  0  0
    4.1461   -2.5510    8.3432 H   0  0  0  1  0  0  0  0  0  0  0  0
    5.9704   -0.6634    5.0387 H   0  0  0  1  0  0  0  0  0  0  0  0
    6.7713    2.0100   -0.9148 H   0  0  0  1  0  0  0  0  0  0  0  0
    5.4036    3.0901   -1.0393 H   0  0  0  1  0  0  0  0  0  0  0  0
    5.3055    1.4756   -1.7012 H   0  0  0  1  0  0  0  0  0  0  0  0
    7.2665    0.7961    2.5043 H   0  0  0  1  0  0  0  0  0  0  0  0
    7.0732    1.6670    5.1278 H   0  0  0  1  0  0  0  0  0  0  0  0
    6.3389    2.9074    4.1405 H   0  0  0  1  0  0  0  0  0  0  0  0
    8.0105    2.4648    3.8878 H   0  0  0  1  0  0  0  0  0  0  0  0
  1  3  1  0  0  0  0
  1 14  2  0  0  0  0
  1 19  1  0  0  0  0
  2  3  1  0  0  0  0
  2 16  1  0  0  0  0
  2 21  1  0  0  0  0
  3  4  1  0  0  0  0
  3 22  1  0  0  0  0
  4  5  1  0  0  0  0
  4 23  1  0  0  0  0
  4 24  1  0  0  0  0
  5  6  4  0  0  0  0
  5 13  4  0  0  0  0
  6  7  4  0  0  0  0
  6 25  1  0  0  0  0
  7  8  4  0  0  0  0
  7 26  1  0  0  0  0
  8  9  4  0  0  0  0
  8 13  4  0  0  0  0
  9 10  4  0  0  0  0
  9 27  1  0  0  0  0
 10 11  4  0  0  0  0
 10 28  1  0  0  0  0
 11 12  4  0  0  0  0
 11 15  1  0  0  0  0
 12 13  4  0  0  0  0
 12 29  1  0  0  0  0
 16 17  2  0  0  0  0
 16 18  1  0  0  0  0
 18 30  1  0  0  0  0
 18 31  1  0  0  0  0
 18 32  1  0  0  0  0
 19 20  1  0  0  0  0
 19 33  1  0  0  0  0
 20 34  1  0  0  0  0
 20 35  1  0  0  0  0
 20 36  1  0  0  0  0
M  END
> <ConfClashScore>
0 

> <ConfOneFourInteractionScore>
-0.960318 

> <ConfScore>
0.481442 

> <ConfScorePBest>
0.0127295 

> <ConfTolerance>
0.980287 

$$$$
5F-TRP.3D.capped.mmff94s.pdb
 OpenBabel09172212003D

 36 37  0  0  0  0  0  0  0  0999 V2000
    6.9733   -1.5804    0.0976 C   0  0  0  1  0  0  0  0  0  0  0  0
    7.4526   -3.2339    1.8956 N   0  0  0  1  0  0  0  0  0  0  0  0
    6.4194   -2.5273    1.1532 C   0  0  0  1  0  0  0  0  0  0  0  0
    5.5449   -1.7420    2.1218 C   0  0  0  1  0  0  0  0  0  0  0  0
    4.8055   -2.5689    3.1393 C   0  0  0  1  0  0  0  0  0  0  0  0
    4.0269   -3.6623    2.8989 C   0  0  0  1  0  0  0  0  0  0  0  0
    3.5059   -4.1405    4.0739 N   0  0  0  1  0  0  0  0  0  0  0  0
    3.9589   -3.3701    5.1097 C   0  0  0  1  0  0  0  0  0  0  0  0
    3.7219   -3.4623    6.4840 C   0  0  0  1  0  0  0  0  0  0  0  0
    4.3140   -2.5193    7.2958 C   0  0  0  1  0  0  0  0  0  0  0  0
    5.1134   -1.5087    6.7710 C   0  0  0  1  0  0  0  0  0  0  0  0
    5.3526   -1.4202    5.4174 C   0  0  0  1  0  0  0  0  0  0  0  0
    4.7766   -2.3667    4.5630 C   0  0  0  1  0  0  0  0  0  0  0  0
    6.3242   -1.2798   -0.9034 O   0  0  0  1  0  0  0  0  0  0  0  0
    5.6627   -0.6012    7.6008 F   0  0  0  1  0  0  0  0  0  0  0  0
    8.2717   -4.0981    1.2611 C   0  0  0  1  0  0  0  0  0  0  0  0
    8.1869   -4.2795    0.0472 O   0  0  0  1  0  0  0  0  0  0  0  0
    9.2994   -4.8392    2.0860 C   0  0  0  1  0  0  0  0  0  0  0  0
    8.2005   -1.1291    0.3719 N   0  0  0  1  0  0  0  0  0  0  0  0
    8.9181   -0.2343   -0.5239 C   0  0  0  1  0  0  0  0  0  0  0  0
    7.5536   -3.0816    2.8584 H   0  0  0  1  0  0  0  0  0  0  0  0
    5.7993   -3.2452    0.6583 H   0  0  0  1  0  0  0  0  0  0  0  0
    4.8219   -1.2000    1.5487 H   0  0  0  1  0  0  0  0  0  0  0  0
    6.1720   -1.0534    2.6487 H   0  0  0  1  0  0  0  0  0  0  0  0
    3.8531   -4.0742    1.9598 H   0  0  0  1  0  0  0  0  0  0  0  0
    2.9055   -4.9104    4.1581 H   0  0  0  1  0  0  0  0  0  0  0  0
    3.1215   -4.2141    6.8790 H   0  0  0  1  0  0  0  0  0  0  0  0
    4.1599   -2.5640    8.3234 H   0  0  0  1  0  0  0  0  0  0  0  0
    5.9526   -0.6611    5.0361 H   0  0  0  1  0  0  0  0  0  0  0  0
    9.6889   -4.1881    2.8404 H   0  0  0  1  0  0  0  0  0  0  0  0
   10.0965   -5.1669    1.4518 H   0  0  0  1  0  0  0  0  0  0  0  0
    8.8402   -5.6873    2.5495 H   0  0  0  1  0  0  0  0  0  0  0  0
    8.6325   -1.4103    1.2054 H   0  0  0  1  0  0  0  0  0  0  0  0
    8.2481    0.1349   -1.2720 H   0  0  0  1  0  0  0  0  0  0  0  0
    9.7184   -0.7669   -0.9936 H   0  0  0  1  0  0  0  0  0  0  0  0
    9.3152    0.5868    0.0355 H   0  0  0  1  0  0  0  0  0  0  0  0
  1  3  1  0  0  0  0
  1 14  2  0  0  0  0
  1 19  1  0  0  0  0
  2  3  1  0  0  0  0
  2 16  1  0  0  0  0
  2 21  1  0  0  0  0
  3  4  1  0  0  0  0
  3 22  1  0  0  0  0
  4  5  1  0  0  0  0
  4 23  1  0  0  0  0
  4 24  1  0  0  0  0
  5  6  4  0  0  0  0
  5 13  4  0  0  0  0
  6  7  4  0  0  0  0
  6 25  1  0  0  0  0
  7  8  4  0  0  0  0
  7 26  1  0  0  0  0
  8  9  4  0  0  0  0
  8 13  4  0  0  0  0
  9 10  4  0  0  0  0
  9 27  1  0  0  0  0
 10 11  4  0  0  0  0
 10 28  1  0  0  0  0
 11 12  4  0  0  0  0
 11 15  1  0  0  0  0
 12 13  4  0  0  0  0
 12 29  1  0  0  0  0
 16 17  2  0  0  0  0
 16 18  1  0  0  0  0
 18 30  1  0  0  0  0
 18 31  1  0  0  0  0
 18 32  1  0  0  0  0
 19 20  1  0  0  0  0
 19 33  1  0  0  0  0
 20 34  1  0  0  0  0
 20 35  1  0  0  0  0
 20 36  1  0  0  0  0
M  END
> <ConfClashScore>
0 

> <ConfOneFourInteractionScore>
-0.956443 

> <ConfScore>
0.482767 

> <ConfScorePBest>
0.0126265 

> <ConfTolerance>
0.750179 

$$$$
5F-TRP.3D.capped.mmff94s.pdb
 OpenBabel09172212003D

 36 37  0  0  0  0  0  0  0  0999 V2000
    7.7036   -1.2729    0.9365 C   0  0  0  1  0  0  0  0  0  0  0  0
    7.6356   -2.2324    3.1924 N   0  0  0  1  0  0  0  0  0  0  0  0
    6.9658   -2.1806    1.9014 C   0  0  0  1  0  0  0  0  0  0  0  0
    5.5271   -1.7308    2.1196 C   0  0  0  1  0  0  0  0  0  0  0  0
    4.7956   -2.5669    3.1354 C   0  0  0  1  0  0  0  0  0  0  0  0
    4.0169   -3.6791    2.8793 C   0  0  0  1  0  0  0  0  0  0  0  0
    3.5215   -4.1415    4.0681 N   0  0  0  1  0  0  0  0  0  0  0  0
    3.9668   -3.3582    5.1063 C   0  0  0  1  0  0  0  0  0  0  0  0
    3.7152   -3.4592    6.4813 C   0  0  0  1  0  0  0  0  0  0  0  0
    4.3092   -2.5098    7.3165 C   0  0  0  1  0  0  0  0  0  0  0  0
    5.1157   -1.5114    6.7860 C   0  0  0  1  0  0  0  0  0  0  0  0
    5.3624   -1.4174    5.4160 C   0  0  0  1  0  0  0  0  0  0  0  0
    4.7733   -2.3619    4.5528 C   0  0  0  1  0  0  0  0  0  0  0  0
    7.6776   -1.4751   -0.2768 O   0  0  0  1  0  0  0  0  0  0  0  0
    5.6747   -0.6100    7.6160 F   0  0  0  1  0  0  0  0  0  0  0  0
    8.6041   -3.1133    3.4590 C   0  0  0  1  0  0  0  0  0  0  0  0
    9.0290   -3.9205    2.6490 O   0  0  0  1  0  0  0  0  0  0  0  0
    9.2303   -2.9864    4.8459 C   0  0  0  1  0  0  0  0  0  0  0  0
    8.3744   -0.2520    1.4932 N   0  0  0  1  0  0  0  0  0  0  0  0
    9.1127    0.7613    0.7543 C   0  0  0  1  0  0  0  0  0  0  0  0
    7.3668   -1.5992    3.8904 H   0  0  0  1  0  0  0  0  0  0  0  0
    6.9429   -3.1647    1.4821 H   0  0  0  1  0  0  0  0  0  0  0  0
    5.0055   -1.7938    1.1875 H   0  0  0  1  0  0  0  0  0  0  0  0
    5.5351   -0.7153    2.4565 H   0  0  0  1  0  0  0  0  0  0  0  0
    3.8379   -4.0941    1.9426 H   0  0  0  1  0  0  0  0  0  0  0  0
    2.9335   -4.9194    4.1654 H   0  0  0  1  0  0  0  0  0  0  0  0
    3.1093   -4.2123    6.8653 H   0  0  0  1  0  0  0  0  0  0  0  0
    4.1462   -2.5510    8.3428 H   0  0  0  1  0  0  0  0  0  0  0  0
    5.9707   -0.6630    5.0386 H   0  0  0  1  0  0  0  0  0  0  0  0
    9.4340   -3.9616    5.2364 H   0  0  0  1  0  0  0  0  0  0  0  0
    8.5525   -2.4759    5.4977 H   0  0  0  1  0  0  0  0  0  0  0  0
   10.1433   -2.4329    4.7755 H   0  0  0  1  0  0  0  0  0  0  0  0
    8.3663   -0.1840    2.4708 H   0  0  0  1  0  0  0  0  0  0  0  0
    9.6586    0.2972   -0.0403 H   0  0  0  1  0  0  0  0  0  0  0  0
    9.7947    1.2568    1.4134 H   0  0  0  1  0  0  0  0  0  0  0  0
    8.4276    1.4751    0.3467 H   0  0  0  1  0  0  0  0  0  0  0  0
  1  3  1  0  0  0  0
  1 14  2  0  0  0  0
  1 19  1  0  0  0  0
  2  3  1  0  0  0  0
  2 16  1  0  0  0  0
  2 21  1  0  0  0  0
  3  4  1  0  0  0  0
  3 22  1  0  0  0  0
  4  5  1  0  0  0  0
  4 23  1  0  0  0  0
  4 24  1  0  0  0  0
  5  6  4  0  0  0  0
  5 13  4  0  0  0  0
  6  7  4  0  0  0  0
  6 25  1  0  0  0  0
  7  8  4  0  0  0  0
  7 26  1  0  0  0  0
  8  9  4  0  0  0  0
  8 13  4  0  0  0  0
  9 10  4  0  0  0  0
  9 27  1  0  0  0  0
 10 11  4  0  0  0  0
 10 28  1  0  0  0  0
 11 12  4  0  0  0  0
 11 15  1  0  0  0  0
 12 13  4  0  0  0  0
 12 29  1  0  0  0  0
 16 17  2  0  0  0  0
 16 18  1  0  0  0  0
 18 30  1  0  0  0  0
 18 31  1  0  0  0  0
 18 32  1  0  0  0  0
 19 20  1  0  0  0  0
 19 33  1  0  0  0  0
 20 34  1  0  0  0  0
 20 35  1  0  0  0  0
 20 36  1  0  0  0  0
M  END
> <ConfClashScore>
0 

> <ConfOneFourInteractionScore>
-0.956443 

> <ConfScore>
0.482967 

> <ConfScorePBest>
0.0125235 

> <ConfTolerance>
0.406374 

$$$$
5F-TRP.3D.capped.mmff94s.pdb
 OpenBabel09172212003D

 36 37  0  0  0  0  0  0  0  0999 V2000
    7.7244   -1.3663    0.9240 C   0  0  0  1  0  0  0  0  0  0  0  0
    7.5454   -1.4973    3.3998 N   0  0  0  1  0  0  0  0  0  0  0  0
    7.0298   -1.9790    2.1134 C   0  0  0  1  0  0  0  0  0  0  0  0
    5.5271   -1.7308    2.1196 C   0  0  0  1  0  0  0  0  0  0  0  0
    4.7956   -2.5669    3.1354 C   0  0  0  1  0  0  0  0  0  0  0  0
    4.0169   -3.6791    2.8793 C   0  0  0  1  0  0  0  0  0  0  0  0
    3.5215   -4.1415    4.0681 N   0  0  0  1  0  0  0  0  0  0  0  0
    3.9668   -3.3582    5.1063 C   0  0  0  1  0  0  0  0  0  0  0  0
    3.7152   -3.4592    6.4813 C   0  0  0  1  0  0  0  0  0  0  0  0
    4.3092   -2.5098    7.3165 C   0  0  0  1  0  0  0  0  0  0  0  0
    5.1157   -1.5114    6.7860 C   0  0  0  1  0  0  0  0  0  0  0  0
    5.3624   -1.4174    5.4160 C   0  0  0  1  0  0  0  0  0  0  0  0
    4.7733   -2.3619    4.5528 C   0  0  0  1  0  0  0  0  0  0  0  0
    7.7292   -0.1737    0.6670 O   0  0  0  1  0  0  0  0  0  0  0  0
    5.6747   -0.6100    7.6160 F   0  0  0  1  0  0  0  0  0  0  0  0
    8.3927   -2.2589    4.1901 C   0  0  0  1  0  0  0  0  0  0  0  0
    8.6561   -3.3961    3.8354 O   0  0  0  1  0  0  0  0  0  0  0  0
    8.9531   -1.6589    5.4490 C   0  0  0  1  0  0  0  0  0  0  0  0
    8.3500   -2.2580    0.1550 N   0  0  0  1  0  0  0  0  0  0  0  0
    9.0748   -1.9226   -1.0616 C   0  0  0  1  0  0  0  0  0  0  0  0
    7.2817   -0.6063    3.7112 H   0  0  0  1  0  0  0  0  0  0  0  0
    7.1783   -3.0377    2.0681 H   0  0  0  1  0  0  0  0  0  0  0  0
    5.1402   -1.9590    1.1485 H   0  0  0  1  0  0  0  0  0  0  0  0
    5.3534   -0.6982    2.3397 H   0  0  0  1  0  0  0  0  0  0  0  0
    3.8379   -4.0941    1.9426 H   0  0  0  1  0  0  0  0  0  0  0  0
    2.9335   -4.9194    4.1654 H   0  0  0  1  0  0  0  0  0  0  0  0
    3.1093   -4.2123    6.8653 H   0  0  0  1  0  0  0  0  0  0  0  0
    4.1462   -2.5510    8.3428 H   0  0  0  1  0  0  0  0  0  0  0  0
    5.9707   -0.6630    5.0386 H   0  0  0  1  0  0  0  0  0  0  0  0
    8.1557   -1.2581    6.0393 H   0  0  0  1  0  0  0  0  0  0  0  0
    9.6379   -0.8764    5.1967 H   0  0  0  1  0  0  0  0  0  0  0  0
    9.4645   -2.4150    6.0072 H   0  0  0  1  0  0  0  0  0  0  0  0
    8.3198   -3.1992    0.4263 H   0  0  0  1  0  0  0  0  0  0  0  0
    9.9690   -1.3916   -0.8098 H   0  0  0  1  0  0  0  0  0  0  0  0
    8.4593   -1.3086   -1.6853 H   0  0  0  1  0  0  0  0  0  0  0  0
    9.3291   -2.8210   -1.5842 H   0  0  0  1  0  0  0  0  0  0  0  0
  1  3  1  0  0  0  0
  1 14  2  0  0  0  0
  1 19  1  0  0  0  0
  2  3  1  0  0  0  0
  2 16  1  0  0  0  0
  2 21  1  0  0  0  0
  3  4  1  0  0  0  0
  3 22  1  0  0  0  0
  4  5  1  0  0  0  0
  4 23  1  0  0  0  0
  4 24  1  0  0  0  0
  5  6  4  0  0  0  0
  5 13  4  0  0  0  0
  6  7  4  0  0  0  0
  6 25  1  0  0  0  0
  7  8  4  0  0  0  0
  7 26  1  0  0  0  0
  8  9  4  0  0  0  0
  8 13  4  0  0  0  0
  9 10  4  0  0  0  0
  9 27  1  0  0  0  0
 10 11  4  0  0  0  0
 10 28  1  0  0  0  0
 11 12  4  0  0  0  0
 11 15  1  0  0  0  0
 12 13  4  0  0  0  0
 12 29  1  0  0  0  0
 16 17  2  0  0  0  0
 16 18  1  0  0  0  0
 18 30  1  0  0  0  0
 18 31  1  0  0  0  0
 18 32  1  0  0  0  0
 19 20  1  0  0  0  0
 19 33  1  0  0  0  0
 20 34  1  0  0  0  0
 20 35  1  0  0  0  0
 20 36  1  0  0  0  0
M  END
> <ConfClashScore>
0 

> <ConfOneFourInteractionScore>
-0.974251 

> <ConfScore>
0.484747 

> <ConfScorePBest>
0.0124205 

> <ConfTolerance>
0.32451 

$$$$
5F-TRP.3D.capped.mmff94s.pdb
 OpenBabel09172212003D

 36 37  0  0  0  0  0  0  0  0999 V2000
    7.7264   -1.2911    0.8678 C   0  0  0  1  0  0  0  0  0  0  0  0
    7.6858   -1.7027    3.3047 N   0  0  0  1  0  0  0  0  0  0  0  0
    7.0204   -1.9918    2.0166 C   0  0  0  1  0  0  0  0  0  0  0  0
    5.5265   -1.7315    2.1205 C   0  0  0  1  0  0  0  0  0  0  0  0
    4.7957   -2.5668    3.1354 C   0  0  0  1  0  0  0  0  0  0  0  0
    4.0170   -3.6790    2.8792 C   0  0  0  1  0  0  0  0  0  0  0  0
    3.5215   -4.1414    4.0680 N   0  0  0  1  0  0  0  0  0  0  0  0
    3.9669   -3.3582    5.1062 C   0  0  0  1  0  0  0  0  0  0  0  0
    3.7152   -3.4592    6.4812 C   0  0  0  1  0  0  0  0  0  0  0  0
    4.3092   -2.5098    7.3164 C   0  0  0  1  0  0  0  0  0  0  0  0
    5.1158   -1.5114    6.7859 C   0  0  0  1  0  0  0  0  0  0  0  0
    5.3624   -1.4174    5.4160 C   0  0  0  1  0  0  0  0  0  0  0  0
    4.7734   -2.3618    4.5527 C   0  0  0  1  0  0  0  0  0  0  0  0
    8.1451   -0.1399    0.9827 O   0  0  0  1  0  0  0  0  0  0  0  0
    5.6747   -0.6100    7.6160 F   0  0  0  1  0  0  0  0  0  0  0  0
    8.9321   -2.1043    3.5702 C   0  0  0  1  0  0  0  0  0  0  0  0
    9.5996   -2.7600    2.7873 O   0  0  0  1  0  0  0  0  0  0  0  0
    9.4826   -1.6936    4.9220 C   0  0  0  1  0  0  0  0  0  0  0  0
    7.8564   -2.0038   -0.2548 N   0  0  0  1  0  0  0  0  0  0  0  0
    8.5256   -1.5423   -1.4619 C   0  0  0  1  0  0  0  0  0  0  0  0
    7.1956   -1.1990    3.9877 H   0  0  0  1  0  0  0  0  0  0  0  0
    7.1291   -3.0417    1.8411 H   0  0  0  1  0  0  0  0  0  0  0  0
    5.0910   -1.9210    1.1617 H   0  0  0  1  0  0  0  0  0  0  0  0
    5.3880   -0.7023    2.3786 H   0  0  0  1  0  0  0  0  0  0  0  0
    3.8379   -4.0940    1.9425 H   0  0  0  1  0  0  0  0  0  0  0  0
    2.9336   -4.9194    4.1653 H   0  0  0  1  0  0  0  0  0  0  0  0
    3.1093   -4.2122    6.8652 H   0  0  0  1  0  0  0  0  0  0  0  0
    4.1462   -2.5510    8.3428 H   0  0  0  1  0  0  0  0  0  0  0  0
    5.9707   -0.6629    5.0386 H   0  0  0  1  0  0  0  0  0  0  0  0
    9.3986   -0.6328    5.0346 H   0  0  0  1  0  0  0  0  0  0  0  0
   10.5118   -1.9787    4.9893 H   0  0  0  1  0  0  0  0  0  0  0  0
    8.9261   -2.1794    5.6960 H   0  0  0  1  0  0  0  0  0  0  0  0
    7.4720   -2.9052   -0.2663 H   0  0  0  1  0  0  0  0  0  0  0  0
    8.6438   -0.4797   -1.4208 H   0  0  0  1  0  0  0  0  0  0  0  0
    7.9376   -1.8027   -2.3171 H   0  0  0  1  0  0  0  0  0  0  0  0
    9.4874   -2.0053   -1.5353 H   0  0  0  1  0  0  0  0  0  0  0  0
  1  3  1  0  0  0  0
  1 14  2  0  0  0  0
  1 19  1  0  0  0  0
  2  3  1  0  0  0  0
  2 16  1  0  0  0  0
  2 21  1  0  0  0  0
  3  4  1  0  0  0  0
  3 22  1  0  0  0  0
  4  5  1  0  0  0  0
  4 23  1  0  0  0  0
  4 24  1  0  0  0  0
  5  6  4  0  0  0  0
  5 13  4  0  0  0  0
  6  7  4  0  0  0  0
  6 25  1  0  0  0  0
  7  8  4  0  0  0  0
  7 26  1  0  0  0  0
  8  9  4  0  0  0  0
  8 13  4  0  0  0  0
  9 10  4  0  0  0  0
  9 27  1  0  0  0  0
 10 11  4  0  0  0  0
 10 28  1  0  0  0  0
 11 12  4  0  0  0  0
 11 15  1  0  0  0  0
 12 13  4  0  0  0  0
 12 29  1  0  0  0  0
 16 17  2  0  0  0  0
 16 18  1  0  0  0  0
 18 30  1  0  0  0  0
 18 31  1  0  0  0  0
 18 32  1  0  0  0  0
 19 20  1  0  0  0  0
 19 33  1  0  0  0  0
 20 34  1  0  0  0  0
 20 35  1  0  0  0  0
 20 36  1  0  0  0  0
M  END
> <ConfClashScore>
0 

> <ConfOneFourInteractionScore>
-0.981931 

> <ConfScore>
0.488041 

> <ConfScorePBest>
0.0123175 

> <ConfTolerance>
0.279085 

$$$$
5F-TRP.3D.capped.mmff94s.pdb
 OpenBabel09172212003D

 36 37  0  0  0  0  0  0  0  0999 V2000
    7.6051   -1.3867    0.7600 C   0  0  0  1  0  0  0  0  0  0  0  0
    7.7880   -2.0859    3.0540 N   0  0  0  1  0  0  0  0  0  0  0  0
    6.9583   -2.2130    1.8642 C   0  0  0  1  0  0  0  0  0  0  0  0
    5.5271   -1.7308    2.1196 C   0  0  0  1  0  0  0  0  0  0  0  0
    4.7956   -2.5669    3.1354 C   0  0  0  1  0  0  0  0  0  0  0  0
    4.0169   -3.6791    2.8793 C   0  0  0  1  0  0  0  0  0  0  0  0
    3.5215   -4.1415    4.0681 N   0  0  0  1  0  0  0  0  0  0  0  0
    3.9668   -3.3582    5.1063 C   0  0  0  1  0  0  0  0  0  0  0  0
    3.7152   -3.4592    6.4813 C   0  0  0  1  0  0  0  0  0  0  0  0
    4.3092   -2.5098    7.3165 C   0  0  0  1  0  0  0  0  0  0  0  0
    5.1157   -1.5114    6.7860 C   0  0  0  1  0  0  0  0  0  0  0  0
    5.3624   -1.4174    5.4160 C   0  0  0  1  0  0  0  0  0  0  0  0
    4.7733   -2.3619    4.5528 C   0  0  0  1  0  0  0  0  0  0  0  0
    7.8115   -0.1904    0.8381 O   0  0  0  1  0  0  0  0  0  0  0  0
    5.6747   -0.6100    7.6160 F   0  0  0  1  0  0  0  0  0  0  0  0
    8.2559   -3.1466    3.7126 C   0  0  0  1  0  0  0  0  0  0  0  0
    8.0090   -4.3043    3.3792 O   0  0  0  1  0  0  0  0  0  0  0  0
    9.1250   -2.8430    4.9175 C   0  0  0  1  0  0  0  0  0  0  0  0
    7.9511   -2.0556   -0.3436 N   0  0  0  1  0  0  0  0  0  0  0  0
    8.6572   -1.4221   -1.4473 C   0  0  0  1  0  0  0  0  0  0  0  0
    8.0102   -1.1896    3.3820 H   0  0  0  1  0  0  0  0  0  0  0  0
    6.9254   -3.2368    1.5548 H   0  0  0  1  0  0  0  0  0  0  0  0
    4.9863   -1.7654    1.1970 H   0  0  0  1  0  0  0  0  0  0  0  0
    5.5658   -0.7217    2.4733 H   0  0  0  1  0  0  0  0  0  0  0  0
    3.8379   -4.0941    1.9426 H   0  0  0  1  0  0  0  0  0  0  0  0
    2.9335   -4.9194    4.1654 H   0  0  0  1  0  0  0  0  0  0  0  0
    3.1093   -4.2123    6.8653 H   0  0  0  1  0  0  0  0  0  0  0  0
    4.1462   -2.5510    8.3428 H   0  0  0  1  0  0  0  0  0  0  0  0
    5.9707   -0.6630    5.0386 H   0  0  0  1  0  0  0  0  0  0  0  0
   10.0357   -2.3835    4.5943 H   0  0  0  1  0  0  0  0  0  0  0  0
    9.3487   -3.7530    5.4339 H   0  0  0  1  0  0  0  0  0  0  0  0
    8.6040   -2.1783    5.5744 H   0  0  0  1  0  0  0  0  0  0  0  0
    7.7214   -3.0058   -0.4123 H   0  0  0  1  0  0  0  0  0  0  0  0
    9.5841   -1.0204   -1.0947 H   0  0  0  1  0  0  0  0  0  0  0  0
    8.0564   -0.6329   -1.8486 H   0  0  0  1  0  0  0  0  0  0  0  0
    8.8501   -2.1473   -2.2100 H   0  0  0  1  0  0  0  0  0  0  0  0
  1  3  1  0  0  0  0
  1 14  2  0  0  0  0
  1 19  1  0  0  0  0
  2  3  1  0  0  0  0
  2 16  1  0  0  0  0
  2 21  1  0  0  0  0
  3  4  1  0  0  0  0
  3 22  1  0  0  0  0
  4  5  1  0  0  0  0
  4 23  1  0  0  0  0
  4 24  1  0  0  0  0
  5  6  4  0  0  0  0
  5 13  4  0  0  0  0
  6  7  4  0  0  0  0
  6 25  1  0  0  0  0
  7  8  4  0  0  0  0
  7 26  1  0  0  0  0
  8  9  4  0  0  0  0
  8 13  4  0  0  0  0
  9 10  4  0  0  0  0
  9 27  1  0  0  0  0
 10 11  4  0  0  0  0
 10 28  1  0  0  0  0
 11 12  4  0  0  0  0
 11 15  1  0  0  0  0
 12 13  4  0  0  0  0
 12 29  1  0  0  0  0
 16 17  2  0  0  0  0
 16 18  1  0  0  0  0
 18 30  1  0  0  0  0
 18 31  1  0  0  0  0
 18 32  1  0  0  0  0
 19 20  1  0  0  0  0
 19 33  1  0  0  0  0
 20 34  1  0  0  0  0
 20 35  1  0  0  0  0
 20 36  1  0  0  0  0
M  END
> <ConfClashScore>
0 

> <ConfOneFourInteractionScore>
-0.978947 

> <ConfScore>
0.489382 

> <ConfScorePBest>
0.0122145 

> <ConfTolerance>
0.284923 

$$$$
5F-TRP.3D.capped.mmff94s.pdb
 OpenBabel09172212003D

 36 37  0  0  0  0  0  0  0  0999 V2000
    5.4405    0.2885    0.6545 C   0  0  0  1  0  0  0  0  0  0  0  0
    3.5636   -1.2119    0.7425 N   0  0  0  1  0  0  0  0  0  0  0  0
    4.6378   -0.6492    1.5471 C   0  0  0  1  0  0  0  0  0  0  0  0
    5.5449   -1.7420    2.1218 C   0  0  0  1  0  0  0  0  0  0  0  0
    4.8055   -2.5689    3.1393 C   0  0  0  1  0  0  0  0  0  0  0  0
    4.0269   -3.6623    2.8989 C   0  0  0  1  0  0  0  0  0  0  0  0
    3.5059   -4.1405    4.0739 N   0  0  0  1  0  0  0  0  0  0  0  0
    3.9589   -3.3701    5.1097 C   0  0  0  1  0  0  0  0  0  0  0  0
    3.7219   -3.4623    6.4840 C   0  0  0  1  0  0  0  0  0  0  0  0
    4.3140   -2.5193    7.2958 C   0  0  0  1  0  0  0  0  0  0  0  0
    5.1134   -1.5087    6.7710 C   0  0  0  1  0  0  0  0  0  0  0  0
    5.3526   -1.4202    5.4174 C   0  0  0  1  0  0  0  0  0  0  0  0
    4.7766   -2.3667    4.5630 C   0  0  0  1  0  0  0  0  0  0  0  0
    6.0543   -0.1323   -0.3252 O   0  0  0  1  0  0  0  0  0  0  0  0
    5.6627   -0.6012    7.6008 F   0  0  0  1  0  0  0  0  0  0  0  0
    2.2768   -0.9441    0.9823 C   0  0  0  1  0  0  0  0  0  0  0  0
    1.8883   -0.1809    1.8626 O   0  0  0  1  0  0  0  0  0  0  0  0
    1.2240   -1.6262    0.1117 C   0  0  0  1  0  0  0  0  0  0  0  0
    5.4291    1.5770    1.0074 N   0  0  0  1  0  0  0  0  0  0  0  0
    6.0652    2.6092    0.2025 C   0  0  0  1  0  0  0  0  0  0  0  0
    3.7920   -1.8079   -0.0011 H   0  0  0  1  0  0  0  0  0  0  0  0
    4.2248   -0.0851    2.3571 H   0  0  0  1  0  0  0  0  0  0  0  0
    6.3917   -1.2848    2.5896 H   0  0  0  1  0  0  0  0  0  0  0  0
    5.8757   -2.3772    1.3269 H   0  0  0  1  0  0  0  0  0  0  0  0
    3.8531   -4.0742    1.9598 H   0  0  0  1  0  0  0  0  0  0  0  0
    2.9055   -4.9104    4.1581 H   0  0  0  1  0  0  0  0  0  0  0  0
    3.1215   -4.2141    6.8790 H   0  0  0  1  0  0  0  0  0  0  0  0
    4.1599   -2.5640    8.3234 H   0  0  0  1  0  0  0  0  0  0  0  0
    5.9526   -0.6611    5.0361 H   0  0  0  1  0  0  0  0  0  0  0  0
    1.3246   -1.2906   -0.8994 H   0  0  0  1  0  0  0  0  0  0  0  0
    0.2478   -1.3794    0.4736 H   0  0  0  1  0  0  0  0  0  0  0  0
    1.3618   -2.6865    0.1506 H   0  0  0  1  0  0  0  0  0  0  0  0
    4.9766    1.8362    1.8372 H   0  0  0  1  0  0  0  0  0  0  0  0
    5.5804    2.6691   -0.7495 H   0  0  0  1  0  0  0  0  0  0  0  0
    7.0977    2.3658    0.0620 H   0  0  0  1  0  0  0  0  0  0  0  0
    5.9852    3.5514    0.7031 H   0  0  0  1  0  0  0  0  0  0  0  0
  1  3  1  0  0  0  0
  1 14  2  0  0  0  0
  1 19  1  0  0  0  0
  2  3  1  0  0  0  0
  2 16  1  0  0  0  0
  2 21  1  0  0  0  0
  3  4  1  0  0  0  0
  3 22  1  0  0  0  0
  4  5  1  0  0  0  0
  4 23  1  0  0  0  0
  4 24  1  0  0  0  0
  5  6  4  0  0  0  0
  5 13  4  0  0  0  0
  6  7  4  0  0  0  0
  6 25  1  0  0  0  0
  7  8  4  0  0  0  0
  7 26  1  0  0  0  0
  8  9  4  0  0  0  0
  8 13  4  0  0  0  0
  9 10  4  0  0  0  0
  9 27  1  0  0  0  0
 10 11  4  0  0  0  0
 10 28  1  0  0  0  0
 11 12  4  0  0  0  0
 11 15  1  0  0  0  0
 12 13  4  0  0  0  0
 12 29  1  0  0  0  0
 16 17  2  0  0  0  0
 16 18  1  0  0  0  0
 18 30  1  0  0  0  0
 18 31  1  0  0  0  0
 18 32  1  0  0  0  0
 19 20  1  0  0  0  0
 19 33  1  0  0  0  0
 20 34  1  0  0  0  0
 20 35  1  0  0  0  0
 20 36  1  0  0  0  0
M  END
> <ConfClashScore>
0 

> <ConfOneFourInteractionScore>
-0.978947 

> <ConfScore>
0.490775 

> <ConfScorePBest>
0.0121115 

> <ConfTolerance>
0.323576 

$$$$
5F-TRP.3D.capped.mmff94s.pdb
 OpenBabel09172212003D

 36 37  0  0  0  0  0  0  0  0999 V2000
    3.5198   -0.5013    1.3134 C   0  0  0  1  0  0  0  0  0  0  0  0
    5.5548   -0.5870   -0.0430 N   0  0  0  1  0  0  0  0  0  0  0  0
    4.7340   -1.3331    0.8991 C   0  0  0  1  0  0  0  0  0  0  0  0
    5.5449   -1.7420    2.1218 C   0  0  0  1  0  0  0  0  0  0  0  0
    4.8055   -2.5689    3.1393 C   0  0  0  1  0  0  0  0  0  0  0  0
    4.0269   -3.6623    2.8989 C   0  0  0  1  0  0  0  0  0  0  0  0
    3.5059   -4.1405    4.0739 N   0  0  0  1  0  0  0  0  0  0  0  0
    3.9589   -3.3701    5.1097 C   0  0  0  1  0  0  0  0  0  0  0  0
    3.7219   -3.4623    6.4840 C   0  0  0  1  0  0  0  0  0  0  0  0
    4.3140   -2.5193    7.2958 C   0  0  0  1  0  0  0  0  0  0  0  0
    5.1134   -1.5087    6.7710 C   0  0  0  1  0  0  0  0  0  0  0  0
    5.3526   -1.4202    5.4174 C   0  0  0  1  0  0  0  0  0  0  0  0
    4.7766   -2.3667    4.5630 C   0  0  0  1  0  0  0  0  0  0  0  0
    2.4225   -1.0369    1.4645 O   0  0  0  1  0  0  0  0  0  0  0  0
    5.6627   -0.6012    7.6008 F   0  0  0  1  0  0  0  0  0  0  0  0
    5.0388   -0.0065   -1.1462 C   0  0  0  1  0  0  0  0  0  0  0  0
    3.8382   -0.1013   -1.4139 O   0  0  0  1  0  0  0  0  0  0  0  0
    5.9756    0.7655   -2.0475 C   0  0  0  1  0  0  0  0  0  0  0  0
    3.6913    0.8202    1.4096 N   0  0  0  1  0  0  0  0  0  0  0  0
    2.6246    1.7134    1.8363 C   0  0  0  1  0  0  0  0  0  0  0  0
    6.5158   -0.5033    0.1300 H   0  0  0  1  0  0  0  0  0  0  0  0
    4.3790   -2.2230    0.4227 H   0  0  0  1  0  0  0  0  0  0  0  0
    5.8852   -0.8502    2.6055 H   0  0  0  1  0  0  0  0  0  0  0  0
    6.3873   -2.3091    1.7846 H   0  0  0  1  0  0  0  0  0  0  0  0
    3.8531   -4.0742    1.9598 H   0  0  0  1  0  0  0  0  0  0  0  0
    2.9055   -4.9104    4.1581 H   0  0  0  1  0  0  0  0  0  0  0  0
    3.1215   -4.2141    6.8790 H   0  0  0  1  0  0  0  0  0  0  0  0
    4.1599   -2.5640    8.3234 H   0  0  0  1  0  0  0  0  0  0  0  0
    5.9526   -0.6611    5.0361 H   0  0  0  1  0  0  0  0  0  0  0  0
    6.4542    1.5402   -1.4856 H   0  0  0  1  0  0  0  0  0  0  0  0
    5.4192    1.2001   -2.8515 H   0  0  0  1  0  0  0  0  0  0  0  0
    6.7164    0.1025   -2.4432 H   0  0  0  1  0  0  0  0  0  0  0  0
    4.5657    1.2012    1.1849 H   0  0  0  1  0  0  0  0  0  0  0  0
    1.8308    1.6901    1.1192 H   0  0  0  1  0  0  0  0  0  0  0  0
    3.0047    2.7105    1.9148 H   0  0  0  1  0  0  0  0  0  0  0  0
    2.2539    1.3965    2.7887 H   0  0  0  1  0  0  0  0  0  0  0  0
  1  3  1  0  0  0  0
  1 14  2  0  0  0  0
  1 19  1  0  0  0  0
  2  3  1  0  0  0  0
  2 16  1  0  0  0  0
  2 21  1  0  0  0  0
  3  4  1  0  0  0  0
  3 22  1  0  0  0  0
  4  5  1  0  0  0  0
  4 23  1  0  0  0  0
  4 24  1  0  0  0  0
  5  6  4  0  0  0  0
  5 13  4  0  0  0  0
  6  7  4  0  0  0  0
  6 25  1  0  0  0  0
  7  8  4  0  0  0  0
  7 26  1  0  0  0  0
  8  9  4  0  0  0  0
  8 13  4  0  0  0  0
  9 10  4  0  0  0  0
  9 27  1  0  0  0  0
 10 11  4  0  0  0  0
 10 28  1  0  0  0  0
 11 12  4  0  0  0  0
 11 15  1  0  0  0  0
 12 13  4  0  0  0  0
 12 29  1  0  0  0  0
 16 17  2  0  0  0  0
 16 18  1  0  0  0  0
 18 30  1  0  0  0  0
 18 31  1  0  0  0  0
 18 32  1  0  0  0  0
 19 20  1  0  0  0  0
 19 33  1  0  0  0  0
 20 34  1  0  0  0  0
 20 35  1  0  0  0  0
 20 36  1  0  0  0  0
M  END
> <ConfClashScore>
0 

> <ConfOneFourInteractionScore>
-0.956443 

> <ConfScore>
0.493463 

> <ConfScorePBest>
0.0120085 

> <ConfTolerance>
0.717728 

$$$$
5F-TRP.3D.capped.mmff94s.pdb
 OpenBabel09172212003D

 36 37  0  0  0  0  0  0  0  0999 V2000
    7.3972   -1.5076    0.4857 C   0  0  0  1  0  0  0  0  0  0  0  0
    7.8526   -2.1274    2.8118 N   0  0  0  1  0  0  0  0  0  0  0  0
    6.9132   -2.2707    1.7095 C   0  0  0  1  0  0  0  0  0  0  0  0
    5.5491   -1.7373    2.1156 C   0  0  0  1  0  0  0  0  0  0  0  0
    4.8051   -2.5695    3.1397 C   0  0  0  1  0  0  0  0  0  0  0  0
    4.0264   -3.6629    2.8994 C   0  0  0  1  0  0  0  0  0  0  0  0
    3.5055   -4.1409    4.0745 N   0  0  0  1  0  0  0  0  0  0  0  0
    3.9586   -3.3704    5.1102 C   0  0  0  1  0  0  0  0  0  0  0  0
    3.7217   -3.4625    6.4846 C   0  0  0  1  0  0  0  0  0  0  0  0
    4.3138   -2.5194    7.2962 C   0  0  0  1  0  0  0  0  0  0  0  0
    5.1132   -1.5089    6.7712 C   0  0  0  1  0  0  0  0  0  0  0  0
    5.3524   -1.4205    5.4176 C   0  0  0  1  0  0  0  0  0  0  0  0
    4.7763   -2.3671    4.5634 C   0  0  0  1  0  0  0  0  0  0  0  0
    8.0298   -0.4577    0.5890 O   0  0  0  1  0  0  0  0  0  0  0  0
    5.6626   -0.6014    7.6009 F   0  0  0  1  0  0  0  0  0  0  0  0
    8.4313   -3.1795    3.3976 C   0  0  0  1  0  0  0  0  0  0  0  0
    8.1821   -4.3425    3.0829 O   0  0  0  1  0  0  0  0  0  0  0  0
    9.4350   -2.8558    4.4968 C   0  0  0  1  0  0  0  0  0  0  0  0
    7.0689   -2.0866   -0.6727 N   0  0  0  1  0  0  0  0  0  0  0  0
    7.2638   -1.4261   -1.9548 C   0  0  0  1  0  0  0  0  0  0  0  0
    8.0681   -1.2279    3.1356 H   0  0  0  1  0  0  0  0  0  0  0  0
    6.8133   -3.3048    1.4535 H   0  0  0  1  0  0  0  0  0  0  0  0
    4.9430   -1.6772    1.2358 H   0  0  0  1  0  0  0  0  0  0  0  0
    5.6857   -0.7573    2.5228 H   0  0  0  1  0  0  0  0  0  0  0  0
    3.8526   -4.0748    1.9604 H   0  0  0  1  0  0  0  0  0  0  0  0
    2.9051   -4.9108    4.1588 H   0  0  0  1  0  0  0  0  0  0  0  0
    3.1214   -4.2142    6.8796 H   0  0  0  1  0  0  0  0  0  0  0  0
    4.1599   -2.5640    8.3238 H   0  0  0  1  0  0  0  0  0  0  0  0
    5.9523   -0.6614    5.0362 H   0  0  0  1  0  0  0  0  0  0  0  0
   10.1545   -3.6445    4.5671 H   0  0  0  1  0  0  0  0  0  0  0  0
    8.9217   -2.7574    5.4304 H   0  0  0  1  0  0  0  0  0  0  0  0
    9.9337   -1.9379    4.2649 H   0  0  0  1  0  0  0  0  0  0  0  0
    6.6833   -2.9875   -0.6586 H   0  0  0  1  0  0  0  0  0  0  0  0
    8.1539   -0.8335   -1.9195 H   0  0  0  1  0  0  0  0  0  0  0  0
    6.4242   -0.7962   -2.1625 H   0  0  0  1  0  0  0  0  0  0  0  0
    7.3565   -2.1631   -2.7250 H   0  0  0  1  0  0  0  0  0  0  0  0
  1  3  1  0  0  0  0
  1 14  2  0  0  0  0
  1 19  1  0  0  0  0
  2  3  1  0  0  0  0
  2 16  1  0  0  0  0
  2 21  1  0  0  0  0
  3  4  1  0  0  0  0
  3 22  1  0  0  0  0
  4  5  1  0  0  0  0
  4 23  1  0  0  0  0
  4 24  1  0  0  0  0
  5  6  4  0  0  0  0
  5 13  4  0  0  0  0
  6  7  4  0  0  0  0
  6 25  1  0  0  0  0
  7  8  4  0  0  0  0
  7 26  1  0  0  0  0
  8  9  4  0  0  0  0
  8 13  4  0  0  0  0
  9 10  4  0  0  0  0
  9 27  1  0  0  0  0
 10 11  4  0  0  0  0
 10 28  1  0  0  0  0
 11 12  4  0  0  0  0
 11 15  1  0  0  0  0
 12 13  4  0  0  0  0
 12 29  1  0  0  0  0
 16 17  2  0  0  0  0
 16 18  1  0  0  0  0
 18 30  1  0  0  0  0
 18 31  1  0  0  0  0
 18 32  1  0  0  0  0
 19 20  1  0  0  0  0
 19 33  1  0  0  0  0
 20 34  1  0  0  0  0
 20 35  1  0  0  0  0
 20 36  1  0  0  0  0
M  END
> <ConfClashScore>
0 

> <ConfOneFourInteractionScore>
-0.978947 

> <ConfScore>
0.493621 

> <ConfScorePBest>
0.0119055 

> <ConfTolerance>
0.368169 

$$$$
5F-TRP.3D.capped.mmff94s.pdb
 OpenBabel09172212003D

 36 37  0  0  0  0  0  0  0  0999 V2000
    5.4636    0.1526    0.5149 C   0  0  0  1  0  0  0  0  0  0  0  0
    3.4043   -0.7223    1.5171 N   0  0  0  1  0  0  0  0  0  0  0  0
    4.8135   -0.4479    1.7548 C   0  0  0  1  0  0  0  0  0  0  0  0
    5.5449   -1.7420    2.1218 C   0  0  0  1  0  0  0  0  0  0  0  0
    4.8055   -2.5689    3.1393 C   0  0  0  1  0  0  0  0  0  0  0  0
    4.0269   -3.6623    2.8989 C   0  0  0  1  0  0  0  0  0  0  0  0
    3.5059   -4.1405    4.0739 N   0  0  0  1  0  0  0  0  0  0  0  0
    3.9589   -3.3701    5.1097 C   0  0  0  1  0  0  0  0  0  0  0  0
    3.7219   -3.4623    6.4840 C   0  0  0  1  0  0  0  0  0  0  0  0
    4.3140   -2.5193    7.2958 C   0  0  0  1  0  0  0  0  0  0  0  0
    5.1134   -1.5087    6.7710 C   0  0  0  1  0  0  0  0  0  0  0  0
    5.3526   -1.4202    5.4174 C   0  0  0  1  0  0  0  0  0  0  0  0
    4.7766   -2.3667    4.5630 C   0  0  0  1  0  0  0  0  0  0  0  0
    5.1212   -0.1815   -0.6186 O   0  0  0  1  0  0  0  0  0  0  0  0
    5.6627   -0.6012    7.6008 F   0  0  0  1  0  0  0  0  0  0  0  0
    2.4422   -0.2646    2.3234 C   0  0  0  1  0  0  0  0  0  0  0  0
    2.6711    0.4325    3.3109 O   0  0  0  1  0  0  0  0  0  0  0  0
    1.0305   -0.6567    1.9499 C   0  0  0  1  0  0  0  0  0  0  0  0
    6.4137    1.0511    0.7885 N   0  0  0  1  0  0  0  0  0  0  0  0
    7.1642    1.7316   -0.2563 C   0  0  0  1  0  0  0  0  0  0  0  0
    3.1521   -1.2615    0.7386 H   0  0  0  1  0  0  0  0  0  0  0  0
    4.9141    0.2436    2.5651 H   0  0  0  1  0  0  0  0  0  0  0  0
    6.5049   -1.4891    2.5210 H   0  0  0  1  0  0  0  0  0  0  0  0
    5.6698   -2.3261    1.2340 H   0  0  0  1  0  0  0  0  0  0  0  0
    3.8531   -4.0742    1.9598 H   0  0  0  1  0  0  0  0  0  0  0  0
    2.9055   -4.9104    4.1581 H   0  0  0  1  0  0  0  0  0  0  0  0
    3.1215   -4.2141    6.8790 H   0  0  0  1  0  0  0  0  0  0  0  0
    4.1599   -2.5640    8.3234 H   0  0  0  1  0  0  0  0  0  0  0  0
    5.9526   -0.6611    5.0361 H   0  0  0  1  0  0  0  0  0  0  0  0
    0.9928   -1.7071    1.7494 H   0  0  0  1  0  0  0  0  0  0  0  0
    0.7296   -0.1162    1.0769 H   0  0  0  1  0  0  0  0  0  0  0  0
    0.3702   -0.4244    2.7591 H   0  0  0  1  0  0  0  0  0  0  0  0
    6.6122    1.2592    1.7254 H   0  0  0  1  0  0  0  0  0  0  0  0
    7.9913    2.2521    0.1793 H   0  0  0  1  0  0  0  0  0  0  0  0
    6.5263    2.4305   -0.7557 H   0  0  0  1  0  0  0  0  0  0  0  0
    7.5267    1.0123   -0.9607 H   0  0  0  1  0  0  0  0  0  0  0  0
  1  3  1  0  0  0  0
  1 14  2  0  0  0  0
  1 19  1  0  0  0  0
  2  3  1  0  0  0  0
  2 16  1  0  0  0  0
  2 21  1  0  0  0  0
  3  4  1  0  0  0  0
  3 22  1  0  0  0  0
  4  5  1  0  0  0  0
  4 23  1  0  0  0  0
  4 24  1  0  0  0  0
  5  6  4  0  0  0  0
  5 13  4  0  0  0  0
  6  7  4  0  0  0  0
  6 25  1  0  0  0  0
  7  8  4  0  0  0  0
  7 26  1  0  0  0  0
  8  9  4  0  0  0  0
  8 13  4  0  0  0  0
  9 10  4  0  0  0  0
  9 27  1  0  0  0  0
 10 11  4  0  0  0  0
 10 28  1  0  0  0  0
 11 12  4  0  0  0  0
 11 15  1  0  0  0  0
 12 13  4  0  0  0  0
 12 29  1  0  0  0  0
 16 17  2  0  0  0  0
 16 18  1  0  0  0  0
 18 30  1  0  0  0  0
 18 31  1  0  0  0  0
 18 32  1  0  0  0  0
 19 20  1  0  0  0  0
 19 33  1  0  0  0  0
 20 34  1  0  0  0  0
 20 35  1  0  0  0  0
 20 36  1  0  0  0  0
M  END
> <ConfClashScore>
0 

> <ConfOneFourInteractionScore>
-0.976985 

> <ConfScore>
0.494842 

> <ConfScorePBest>
0.0118025 

> <ConfTolerance>
0.3728 

$$$$
5F-TRP.3D.capped.mmff94s.pdb
 OpenBabel09172212003D

 36 37  0  0  0  0  0  0  0  0999 V2000
    7.7227   -1.7570    3.3286 C   0  0  0  1  0  0  0  0  0  0  0  0
    7.1575   -3.5083    1.6484 N   0  0  0  1  0  0  0  0  0  0  0  0
    7.0263   -2.1061    2.0178 C   0  0  0  1  0  0  0  0  0  0  0  0
    5.5443   -1.7426    2.1227 C   0  0  0  1  0  0  0  0  0  0  0  0
    4.8056   -2.5689    3.1393 C   0  0  0  1  0  0  0  0  0  0  0  0
    4.0269   -3.6622    2.8988 C   0  0  0  1  0  0  0  0  0  0  0  0
    3.5059   -4.1404    4.0738 N   0  0  0  1  0  0  0  0  0  0  0  0
    3.9590   -3.3701    5.1097 C   0  0  0  1  0  0  0  0  0  0  0  0
    3.7220   -3.4623    6.4840 C   0  0  0  1  0  0  0  0  0  0  0  0
    4.3140   -2.5193    7.2958 C   0  0  0  1  0  0  0  0  0  0  0  0
    5.1134   -1.5087    6.7709 C   0  0  0  1  0  0  0  0  0  0  0  0
    5.3527   -1.4202    5.4173 C   0  0  0  1  0  0  0  0  0  0  0  0
    4.7767   -2.3666    4.5630 C   0  0  0  1  0  0  0  0  0  0  0  0
    8.0669   -0.5890    3.5047 O   0  0  0  1  0  0  0  0  0  0  0  0
    5.6628   -0.6012    7.6008 F   0  0  0  1  0  0  0  0  0  0  0  0
    8.3234   -4.1575    1.7139 C   0  0  0  1  0  0  0  0  0  0  0  0
    9.3659   -3.6243    2.0844 O   0  0  0  1  0  0  0  0  0  0  0  0
    8.2898   -5.6154    1.2982 C   0  0  0  1  0  0  0  0  0  0  0  0
    7.9228   -2.7350    4.2165 N   0  0  0  1  0  0  0  0  0  0  0  0
    8.6989   -2.4808    5.4211 C   0  0  0  1  0  0  0  0  0  0  0  0
    6.3630   -3.9928    1.3412 H   0  0  0  1  0  0  0  0  0  0  0  0
    7.4579   -1.5043    1.2454 H   0  0  0  1  0  0  0  0  0  0  0  0
    5.0885   -1.8920    1.1662 H   0  0  0  1  0  0  0  0  0  0  0  0
    5.4652   -0.7119    2.3990 H   0  0  0  1  0  0  0  0  0  0  0  0
    3.8532   -4.0741    1.9597 H   0  0  0  1  0  0  0  0  0  0  0  0
    2.9055   -4.9103    4.1580 H   0  0  0  1  0  0  0  0  0  0  0  0
    3.1216   -4.2140    6.8789 H   0  0  0  1  0  0  0  0  0  0  0  0
    4.1599   -2.5640    8.3233 H   0  0  0  1  0  0  0  0  0  0  0  0
    5.9526   -0.6610    5.0360 H   0  0  0  1  0  0  0  0  0  0  0  0
    7.7622   -6.1847    2.0347 H   0  0  0  1  0  0  0  0  0  0  0  0
    9.2904   -5.9845    1.2119 H   0  0  0  1  0  0  0  0  0  0  0  0
    7.7931   -5.7057    0.3548 H   0  0  0  1  0  0  0  0  0  0  0  0
    7.5462   -3.6255    4.0564 H   0  0  0  1  0  0  0  0  0  0  0  0
    8.6410   -1.4419    5.6706 H   0  0  0  1  0  0  0  0  0  0  0  0
    9.7204   -2.7499    5.2503 H   0  0  0  1  0  0  0  0  0  0  0  0
    8.3061   -3.0636    6.2278 H   0  0  0  1  0  0  0  0  0  0  0  0
  1  3  1  0  0  0  0
  1 14  2  0  0  0  0
  1 19  1  0  0  0  0
  2  3  1  0  0  0  0
  2 16  1  0  0  0  0
  2 21  1  0  0  0  0
  3  4  1  0  0  0  0
  3 22  1  0  0  0  0
  4  5  1  0  0  0  0
  4 23  1  0  0  0  0
  4 24  1  0  0  0  0
  5  6  4  0  0  0  0
  5 13  4  0  0  0  0
  6  7  4  0  0  0  0
  6 25  1  0  0  0  0
  7  8  4  0  0  0  0
  7 26  1  0  0  0  0
  8  9  4  0  0  0  0
  8 13  4  0  0  0  0
  9 10  4  0  0  0  0
  9 27  1  0  0  0  0
 10 11  4  0  0  0  0
 10 28  1  0  0  0  0
 11 12  4  0  0  0  0
 11 15  1  0  0  0  0
 12 13  4  0  0  0  0
 12 29  1  0  0  0  0
 16 17  2  0  0  0  0
 16 18  1  0  0  0  0
 18 30  1  0  0  0  0
 18 31  1  0  0  0  0
 18 32  1  0  0  0  0
 19 20  1  0  0  0  0
 19 33  1  0  0  0  0
 20 34  1  0  0  0  0
 20 35  1  0  0  0  0
 20 36  1  0  0  0  0
M  END
> <ConfClashScore>
0 

> <ConfOneFourInteractionScore>
-0.950605 

> <ConfScore>
0.500808 

> <ConfScorePBest>
0.0116995 

> <ConfTolerance>
0.321114 

$$$$
5F-TRP.3D.capped.mmff94s.pdb
 OpenBabel09172212003D

 36 37  0  0  0  0  0  0  0  0999 V2000
    3.8935   -2.0830    0.2634 C   0  0  0  1  0  0  0  0  0  0  0  0
    6.2013   -1.6471   -0.2644 N   0  0  0  1  0  0  0  0  0  0  0  0
    5.3338   -2.3017    0.7085 C   0  0  0  1  0  0  0  0  0  0  0  0
    5.5449   -1.7420    2.1218 C   0  0  0  1  0  0  0  0  0  0  0  0
    4.8055   -2.5689    3.1393 C   0  0  0  1  0  0  0  0  0  0  0  0
    4.0269   -3.6623    2.8989 C   0  0  0  1  0  0  0  0  0  0  0  0
    3.5059   -4.1405    4.0739 N   0  0  0  1  0  0  0  0  0  0  0  0
    3.9589   -3.3701    5.1097 C   0  0  0  1  0  0  0  0  0  0  0  0
    3.7219   -3.4623    6.4840 C   0  0  0  1  0  0  0  0  0  0  0  0
    4.3140   -2.5193    7.2958 C   0  0  0  1  0  0  0  0  0  0  0  0
    5.1134   -1.5087    6.7710 C   0  0  0  1  0  0  0  0  0  0  0  0
    5.3526   -1.4202    5.4174 C   0  0  0  1  0  0  0  0  0  0  0  0
    4.7766   -2.3667    4.5630 C   0  0  0  1  0  0  0  0  0  0  0  0
    3.0136   -2.9201    0.3442 O   0  0  0  1  0  0  0  0  0  0  0  0
    5.6627   -0.6012    7.6008 F   0  0  0  1  0  0  0  0  0  0  0  0
    6.3851   -2.1345   -1.5089 C   0  0  0  1  0  0  0  0  0  0  0  0
    5.8079   -3.1543   -1.8838 O   0  0  0  1  0  0  0  0  0  0  0  0
    7.3254   -1.3880   -2.4351 C   0  0  0  1  0  0  0  0  0  0  0  0
    3.6685   -0.8645   -0.2364 N   0  0  0  1  0  0  0  0  0  0  0  0
    2.4001   -0.4972   -0.8482 C   0  0  0  1  0  0  0  0  0  0  0  0
    6.6669   -0.8247   -0.0049 H   0  0  0  1  0  0  0  0  0  0  0  0
    5.5353   -3.3524    0.7222 H   0  0  0  1  0  0  0  0  0  0  0  0
    5.1835   -0.7355    2.1581 H   0  0  0  1  0  0  0  0  0  0  0  0
    6.5898   -1.7547    2.3517 H   0  0  0  1  0  0  0  0  0  0  0  0
    3.8531   -4.0742    1.9598 H   0  0  0  1  0  0  0  0  0  0  0  0
    2.9055   -4.9104    4.1581 H   0  0  0  1  0  0  0  0  0  0  0  0
    3.1215   -4.2141    6.8790 H   0  0  0  1  0  0  0  0  0  0  0  0
    4.1599   -2.5640    8.3234 H   0  0  0  1  0  0  0  0  0  0  0  0
    5.9526   -0.6611    5.0361 H   0  0  0  1  0  0  0  0  0  0  0  0
    7.4629   -1.9515   -3.3343 H   0  0  0  1  0  0  0  0  0  0  0  0
    8.2700   -1.2533   -1.9510 H   0  0  0  1  0  0  0  0  0  0  0  0
    6.9068   -0.4327   -2.6737 H   0  0  0  1  0  0  0  0  0  0  0  0
    4.3824   -0.1948   -0.1894 H   0  0  0  1  0  0  0  0  0  0  0  0
    1.9789   -1.3507   -1.3369 H   0  0  0  1  0  0  0  0  0  0  0  0
    2.5622    0.2803   -1.5653 H   0  0  0  1  0  0  0  0  0  0  0  0
    1.7268   -0.1510   -0.0921 H   0  0  0  1  0  0  0  0  0  0  0  0
  1  3  1  0  0  0  0
  1 14  2  0  0  0  0
  1 19  1  0  0  0  0
  2  3  1  0  0  0  0
  2 16  1  0  0  0  0
  2 21  1  0  0  0  0
  3  4  1  0  0  0  0
  3 22  1  0  0  0  0
  4  5  1  0  0  0  0
  4 23  1  0  0  0  0
  4 24  1  0  0  0  0
  5  6  4  0  0  0  0
  5 13  4  0  0  0  0
  6  7  4  0  0  0  0
  6 25  1  0  0  0  0
  7  8  4  0  0  0  0
  7 26  1  0  0  0  0
  8  9  4  0  0  0  0
  8 13  4  0  0  0  0
  9 10  4  0  0  0  0
  9 27  1  0  0  0  0
 10 11  4  0  0  0  0
 10 28  1  0  0  0  0
 11 12  4  0  0  0  0
 11 15  1  0  0  0  0
 12 13  4  0  0  0  0
 12 29  1  0  0  0  0
 16 17  2  0  0  0  0
 16 18  1  0  0  0  0
 18 30  1  0  0  0  0
 18 31  1  0  0  0  0
 18 32  1  0  0  0  0
 19 20  1  0  0  0  0
 19 33  1  0  0  0  0
 20 34  1  0  0  0  0
 20 35  1  0  0  0  0
 20 36  1  0  0  0  0
M  END
> <ConfClashScore>
0 

> <ConfOneFourInteractionScore>
-0.952877 

> <ConfScore>
0.50349 

> <ConfScorePBest>
0.0115965 

> <ConfTolerance>
0.768277 

$$$$
5F-TRP.3D.capped.mmff94s.pdb
 OpenBabel09172212003D

 36 37  0  0  0  0  0  0  0  0999 V2000
    6.9636    0.2776    1.5801 C   0  0  0  1  0  0  0  0  0  0  0  0
    5.1643    0.3773    3.3082 N   0  0  0  1  0  0  0  0  0  0  0  0
    6.1618   -0.4539    2.6511 C   0  0  0  1  0  0  0  0  0  0  0  0
    5.5449   -1.7420    2.1218 C   0  0  0  1  0  0  0  0  0  0  0  0
    4.8055   -2.5689    3.1393 C   0  0  0  1  0  0  0  0  0  0  0  0
    4.0269   -3.6623    2.8989 C   0  0  0  1  0  0  0  0  0  0  0  0
    3.5059   -4.1405    4.0739 N   0  0  0  1  0  0  0  0  0  0  0  0
    3.9589   -3.3701    5.1097 C   0  0  0  1  0  0  0  0  0  0  0  0
    3.7219   -3.4623    6.4840 C   0  0  0  1  0  0  0  0  0  0  0  0
    4.3140   -2.5193    7.2958 C   0  0  0  1  0  0  0  0  0  0  0  0
    5.1134   -1.5087    6.7710 C   0  0  0  1  0  0  0  0  0  0  0  0
    5.3526   -1.4202    5.4174 C   0  0  0  1  0  0  0  0  0  0  0  0
    4.7766   -2.3667    4.5630 C   0  0  0  1  0  0  0  0  0  0  0  0
    8.0838   -0.1036    1.2511 O   0  0  0  1  0  0  0  0  0  0  0  0
    5.6627   -0.6012    7.6008 F   0  0  0  1  0  0  0  0  0  0  0  0
    5.4610    1.5716    3.8284 C   0  0  0  1  0  0  0  0  0  0  0  0
    6.5380    2.1198    3.6617 O   0  0  0  1  0  0  0  0  0  0  0  0
    4.3666    2.2214    4.6526 C   0  0  0  1  0  0  0  0  0  0  0  0
    6.3690    1.3434    1.0365 N   0  0  0  1  0  0  0  0  0  0  0  0
    6.9159    2.2443    0.0330 C   0  0  0  1  0  0  0  0  0  0  0  0
    4.2428    0.0496    3.3714 H   0  0  0  1  0  0  0  0  0  0  0  0
    6.8660   -0.7474    3.4013 H   0  0  0  1  0  0  0  0  0  0  0  0
    6.3322   -2.3430    1.7171 H   0  0  0  1  0  0  0  0  0  0  0  0
    4.8571   -1.4833    1.3440 H   0  0  0  1  0  0  0  0  0  0  0  0
    3.8531   -4.0742    1.9598 H   0  0  0  1  0  0  0  0  0  0  0  0
    2.9055   -4.9104    4.1581 H   0  0  0  1  0  0  0  0  0  0  0  0
    3.1215   -4.2141    6.8790 H   0  0  0  1  0  0  0  0  0  0  0  0
    4.1599   -2.5640    8.3234 H   0  0  0  1  0  0  0  0  0  0  0  0
    5.9526   -0.6611    5.0361 H   0  0  0  1  0  0  0  0  0  0  0  0
    3.6862    1.4712    4.9978 H   0  0  0  1  0  0  0  0  0  0  0  0
    3.8392    2.9304    4.0491 H   0  0  0  1  0  0  0  0  0  0  0  0
    4.8021    2.7213    5.4925 H   0  0  0  1  0  0  0  0  0  0  0  0
    5.4614    1.5408    1.3490 H   0  0  0  1  0  0  0  0  0  0  0  0
    7.4843    1.6832   -0.6790 H   0  0  0  1  0  0  0  0  0  0  0  0
    7.5499    2.9639    0.5076 H   0  0  0  1  0  0  0  0  0  0  0  0
    6.1157    2.7484   -0.4675 H   0  0  0  1  0  0  0  0  0  0  0  0
  1  3  1  0  0  0  0
  1 14  2  0  0  0  0
  1 19  1  0  0  0  0
  2  3  1  0  0  0  0
  2 16  1  0  0  0  0
  2 21  1  0  0  0  0
  3  4  1  0  0  0  0
  3 22  1  0  0  0  0
  4  5  1  0  0  0  0
  4 23  1  0  0  0  0
  4 24  1  0  0  0  0
  5  6  4  0  0  0  0
  5 13  4  0  0  0  0
  6  7  4  0  0  0  0
  6 25  1  0  0  0  0
  7  8  4  0  0  0  0
  7 26  1  0  0  0  0
  8  9  4  0  0  0  0
  8 13  4  0  0  0  0
  9 10  4  0  0  0  0
  9 27  1  0  0  0  0
 10 11  4  0  0  0  0
 10 28  1  0  0  0  0
 11 12  4  0  0  0  0
 11 15  1  0  0  0  0
 12 13  4  0  0  0  0
 12 29  1  0  0  0  0
 16 17  2  0  0  0  0
 16 18  1  0  0  0  0
 18 30  1  0  0  0  0
 18 31  1  0  0  0  0
 18 32  1  0  0  0  0
 19 20  1  0  0  0  0
 19 33  1  0  0  0  0
 20 34  1  0  0  0  0
 20 35  1  0  0  0  0
 20 36  1  0  0  0  0
M  END
> <ConfClashScore>
0 

> <ConfOneFourInteractionScore>
-0.949001 

> <ConfScore>
0.504182 

> <ConfScorePBest>
0.0114935 

> <ConfTolerance>
0.729737 

$$$$
5F-TRP.3D.capped.mmff94s.pdb
 OpenBabel09172212003D

 36 37  0  0  0  0  0  0  0  0999 V2000
    7.5672   -1.4483    0.7095 C   0  0  0  1  0  0  0  0  0  0  0  0
    7.7256   -1.8493    3.1685 N   0  0  0  1  0  0  0  0  0  0  0  0
    6.9914   -2.1424    1.9467 C   0  0  0  1  0  0  0  0  0  0  0  0
    5.5271   -1.7308    2.1196 C   0  0  0  1  0  0  0  0  0  0  0  0
    4.7956   -2.5669    3.1354 C   0  0  0  1  0  0  0  0  0  0  0  0
    4.0169   -3.6791    2.8793 C   0  0  0  1  0  0  0  0  0  0  0  0
    3.5215   -4.1415    4.0681 N   0  0  0  1  0  0  0  0  0  0  0  0
    3.9668   -3.3582    5.1063 C   0  0  0  1  0  0  0  0  0  0  0  0
    3.7152   -3.4592    6.4813 C   0  0  0  1  0  0  0  0  0  0  0  0
    4.3092   -2.5098    7.3165 C   0  0  0  1  0  0  0  0  0  0  0  0
    5.1157   -1.5114    6.7860 C   0  0  0  1  0  0  0  0  0  0  0  0
    5.3624   -1.4174    5.4160 C   0  0  0  1  0  0  0  0  0  0  0  0
    4.7733   -2.3619    4.5528 C   0  0  0  1  0  0  0  0  0  0  0  0
    6.9031   -1.4770   -0.3248 O   0  0  0  1  0  0  0  0  0  0  0  0
    5.6747   -0.6100    7.6160 F   0  0  0  1  0  0  0  0  0  0  0  0
    8.6554   -2.7212    3.5687 C   0  0  0  1  0  0  0  0  0  0  0  0
    8.8976   -3.7680    2.9907 O   0  0  0  1  0  0  0  0  0  0  0  0
    9.4844   -2.2768    4.7716 C   0  0  0  1  0  0  0  0  0  0  0  0
    8.7608   -0.8610    0.8599 N   0  0  0  1  0  0  0  0  0  0  0  0
    9.3650   -0.0489   -0.1857 C   0  0  0  1  0  0  0  0  0  0  0  0
    7.5431   -1.0355    3.6832 H   0  0  0  1  0  0  0  0  0  0  0  0
    7.0174   -3.1979    1.7729 H   0  0  0  1  0  0  0  0  0  0  0  0
    5.0317   -1.8302    1.1764 H   0  0  0  1  0  0  0  0  0  0  0  0
    5.4956   -0.7084    2.4337 H   0  0  0  1  0  0  0  0  0  0  0  0
    3.8379   -4.0941    1.9426 H   0  0  0  1  0  0  0  0  0  0  0  0
    2.9335   -4.9194    4.1654 H   0  0  0  1  0  0  0  0  0  0  0  0
    3.1093   -4.2123    6.8653 H   0  0  0  1  0  0  0  0  0  0  0  0
    4.1462   -2.5510    8.3428 H   0  0  0  1  0  0  0  0  0  0  0  0
    5.9707   -0.6630    5.0386 H   0  0  0  1  0  0  0  0  0  0  0  0
    9.3917   -1.2183    4.8978 H   0  0  0  1  0  0  0  0  0  0  0  0
   10.5118   -2.5277    4.6087 H   0  0  0  1  0  0  0  0  0  0  0  0
    9.1307   -2.7729    5.6511 H   0  0  0  1  0  0  0  0  0  0  0  0
    9.2446   -0.9822    1.7035 H   0  0  0  1  0  0  0  0  0  0  0  0
    9.8107    0.8208    0.2501 H   0  0  0  1  0  0  0  0  0  0  0  0
    8.6121    0.2491   -0.8853 H   0  0  0  1  0  0  0  0  0  0  0  0
   10.1162   -0.6193   -0.6908 H   0  0  0  1  0  0  0  0  0  0  0  0
  1  3  1  0  0  0  0
  1 14  2  0  0  0  0
  1 19  1  0  0  0  0
  2  3  1  0  0  0  0
  2 16  1  0  0  0  0
  2 21  1  0  0  0  0
  3  4  1  0  0  0  0
  3 22  1  0  0  0  0
  4  5  1  0  0  0  0
  4 23  1  0  0  0  0
  4 24  1  0  0  0  0
  5  6  4  0  0  0  0
  5 13  4  0  0  0  0
  6  7  4  0  0  0  0
  6 25  1  0  0  0  0
  7  8  4  0  0  0  0
  7 26  1  0  0  0  0
  8  9  4  0  0  0  0
  8 13  4  0  0  0  0
  9 10  4  0  0  0  0
  9 27  1  0  0  0  0
 10 11  4  0  0  0  0
 10 28  1  0  0  0  0
 11 12  4  0  0  0  0
 11 15  1  0  0  0  0
 12 13  4  0  0  0  0
 12 29  1  0  0  0  0
 16 17  2  0  0  0  0
 16 18  1  0  0  0  0
 18 30  1  0  0  0  0
 18 31  1  0  0  0  0
 18 32  1  0  0  0  0
 19 20  1  0  0  0  0
 19 33  1  0  0  0  0
 20 34  1  0  0  0  0
 20 35  1  0  0  0  0
 20 36  1  0  0  0  0
M  END
> <ConfClashScore>
0 

> <ConfOneFourInteractionScore>
-0.952638 

> <ConfScore>
0.504225 

> <ConfScorePBest>
0.0113905 

> <ConfTolerance>
0.392571 

$$$$
5F-TRP.3D.capped.mmff94s.pdb
 OpenBabel09172212003D

 36 37  0  0  0  0  0  0  0  0999 V2000
    7.5663   -1.5712    0.6088 C   0  0  0  1  0  0  0  0  0  0  0  0
    7.8200   -2.1766    2.9957 N   0  0  0  1  0  0  0  0  0  0  0  0
    6.9452   -2.2373    1.8343 C   0  0  0  1  0  0  0  0  0  0  0  0
    5.5271   -1.7308    2.1196 C   0  0  0  1  0  0  0  0  0  0  0  0
    4.7956   -2.5669    3.1354 C   0  0  0  1  0  0  0  0  0  0  0  0
    4.0169   -3.6791    2.8793 C   0  0  0  1  0  0  0  0  0  0  0  0
    3.5215   -4.1415    4.0681 N   0  0  0  1  0  0  0  0  0  0  0  0
    3.9668   -3.3582    5.1063 C   0  0  0  1  0  0  0  0  0  0  0  0
    3.7152   -3.4592    6.4813 C   0  0  0  1  0  0  0  0  0  0  0  0
    4.3092   -2.5098    7.3165 C   0  0  0  1  0  0  0  0  0  0  0  0
    5.1157   -1.5114    6.7860 C   0  0  0  1  0  0  0  0  0  0  0  0
    5.3624   -1.4174    5.4160 C   0  0  0  1  0  0  0  0  0  0  0  0
    4.7733   -2.3619    4.5528 C   0  0  0  1  0  0  0  0  0  0  0  0
    8.3731   -0.6637    0.6990 O   0  0  0  1  0  0  0  0  0  0  0  0
    5.6747   -0.6100    7.6160 F   0  0  0  1  0  0  0  0  0  0  0  0
    9.0839   -2.6424    2.9698 C   0  0  0  1  0  0  0  0  0  0  0  0
    9.6323   -3.1081    1.9845 O   0  0  0  1  0  0  0  0  0  0  0  0
    9.7983   -2.5409    4.3035 C   0  0  0  1  0  0  0  0  0  0  0  0
    7.2130   -1.9985   -0.6176 N   0  0  0  1  0  0  0  0  0  0  0  0
    7.7748   -1.3119   -1.7712 C   0  0  0  1  0  0  0  0  0  0  0  0
    7.4778   -1.7833    3.8255 H   0  0  0  1  0  0  0  0  0  0  0  0
    6.8400   -3.2720    1.5830 H   0  0  0  1  0  0  0  0  0  0  0  0
    4.9712   -1.7419    1.2054 H   0  0  0  1  0  0  0  0  0  0  0  0
    5.5911   -0.7277    2.4866 H   0  0  0  1  0  0  0  0  0  0  0  0
    3.8379   -4.0941    1.9426 H   0  0  0  1  0  0  0  0  0  0  0  0
    2.9335   -4.9194    4.1654 H   0  0  0  1  0  0  0  0  0  0  0  0
    3.1093   -4.2123    6.8653 H   0  0  0  1  0  0  0  0  0  0  0  0
    4.1462   -2.5510    8.3428 H   0  0  0  1  0  0  0  0  0  0  0  0
    5.9707   -0.6630    5.0386 H   0  0  0  1  0  0  0  0  0  0  0  0
    9.1033   -2.2389    5.0589 H   0  0  0  1  0  0  0  0  0  0  0  0
   10.5842   -1.8183    4.2328 H   0  0  0  1  0  0  0  0  0  0  0  0
   10.2115   -3.4940    4.5599 H   0  0  0  1  0  0  0  0  0  0  0  0
    6.5949   -2.7506   -0.7305 H   0  0  0  1  0  0  0  0  0  0  0  0
    8.7351   -0.9140   -1.5173 H   0  0  0  1  0  0  0  0  0  0  0  0
    7.1242   -0.5141   -2.0629 H   0  0  0  1  0  0  0  0  0  0  0  0
    7.8783   -2.0029   -2.5817 H   0  0  0  1  0  0  0  0  0  0  0  0
  1  3  1  0  0  0  0
  1 14  2  0  0  0  0
  1 19  1  0  0  0  0
  2  3  1  0  0  0  0
  2 16  1  0  0  0  0
  2 21  1  0  0  0  0
  3  4  1  0  0  0  0
  3 22  1  0  0  0  0
  4  5  1  0  0  0  0
  4 23  1  0  0  0  0
  4 24  1  0  0  0  0
  5  6  4  0  0  0  0
  5 13  4  0  0  0  0
  6  7  4  0  0  0  0
  6 25  1  0  0  0  0
  7  8  4  0  0  0  0
  7 26  1  0  0  0  0
  8  9  4  0  0  0  0
  8 13  4  0  0  0  0
  9 10  4  0  0  0  0
  9 27  1  0  0  0  0
 10 11  4  0  0  0  0
 10 28  1  0  0  0  0
 11 12  4  0  0  0  0
 11 15  1  0  0  0  0
 12 13  4  0  0  0  0
 12 29  1  0  0  0  0
 16 17  2  0  0  0  0
 16 18  1  0  0  0  0
 18 30  1  0  0  0  0
 18 31  1  0  0  0  0
 18 32  1  0  0  0  0
 19 20  1  0  0  0  0
 19 33  1  0  0  0  0
 20 34  1  0  0  0  0
 20 35  1  0  0  0  0
 20 36  1  0  0  0  0
M  END
> <ConfClashScore>
0 

> <ConfOneFourInteractionScore>
-0.981931 

> <ConfScore>
0.506287 

> <ConfScorePBest>
0.0112875 

> <ConfTolerance>
0.379441 

$$$$
5F-TRP.3D.capped.mmff94s.pdb
 OpenBabel09172212003D

 36 37  0  0  0  0  0  0  0  0999 V2000
    7.7300   -1.2630    0.9958 C   0  0  0  1  0  0  0  0  0  0  0  0
    7.6374   -2.4461    3.1611 N   0  0  0  1  0  0  0  0  0  0  0  0
    6.9716   -2.2206    1.8869 C   0  0  0  1  0  0  0  0  0  0  0  0
    5.5449   -1.7420    2.1218 C   0  0  0  1  0  0  0  0  0  0  0  0
    4.8055   -2.5689    3.1393 C   0  0  0  1  0  0  0  0  0  0  0  0
    4.0269   -3.6623    2.8989 C   0  0  0  1  0  0  0  0  0  0  0  0
    3.5059   -4.1405    4.0739 N   0  0  0  1  0  0  0  0  0  0  0  0
    3.9589   -3.3701    5.1097 C   0  0  0  1  0  0  0  0  0  0  0  0
    3.7219   -3.4623    6.4840 C   0  0  0  1  0  0  0  0  0  0  0  0
    4.3140   -2.5193    7.2958 C   0  0  0  1  0  0  0  0  0  0  0  0
    5.1134   -1.5087    6.7710 C   0  0  0  1  0  0  0  0  0  0  0  0
    5.3526   -1.4202    5.4174 C   0  0  0  1  0  0  0  0  0  0  0  0
    4.7766   -2.3667    4.5630 C   0  0  0  1  0  0  0  0  0  0  0  0
    8.4528   -0.3914    1.4770 O   0  0  0  1  0  0  0  0  0  0  0  0
    5.6627   -0.6012    7.6008 F   0  0  0  1  0  0  0  0  0  0  0  0
    8.1404   -3.6488    3.5086 C   0  0  0  1  0  0  0  0  0  0  0  0
    8.2925   -4.5377    2.6748 O   0  0  0  1  0  0  0  0  0  0  0  0
    8.5136   -3.8728    4.9610 C   0  0  0  1  0  0  0  0  0  0  0  0
    7.5914   -1.3921   -0.3267 N   0  0  0  1  0  0  0  0  0  0  0  0
    8.3450   -0.5800   -1.2703 C   0  0  0  1  0  0  0  0  0  0  0  0
    7.7233   -1.6983    3.7887 H   0  0  0  1  0  0  0  0  0  0  0  0
    6.9119   -3.1570    1.3726 H   0  0  0  1  0  0  0  0  0  0  0  0
    5.0132   -1.7878    1.1944 H   0  0  0  1  0  0  0  0  0  0  0  0
    5.5777   -0.7290    2.4650 H   0  0  0  1  0  0  0  0  0  0  0  0
    3.8531   -4.0742    1.9598 H   0  0  0  1  0  0  0  0  0  0  0  0
    2.9055   -4.9104    4.1581 H   0  0  0  1  0  0  0  0  0  0  0  0
    3.1215   -4.2141    6.8790 H   0  0  0  1  0  0  0  0  0  0  0  0
    4.1599   -2.5640    8.3234 H   0  0  0  1  0  0  0  0  0  0  0  0
    5.9526   -0.6611    5.0361 H   0  0  0  1  0  0  0  0  0  0  0  0
    7.6727   -3.6505    5.5843 H   0  0  0  1  0  0  0  0  0  0  0  0
    9.3300   -3.2322    5.2221 H   0  0  0  1  0  0  0  0  0  0  0  0
    8.8015   -4.8937    5.1017 H   0  0  0  1  0  0  0  0  0  0  0  0
    6.9603   -2.0569   -0.6735 H   0  0  0  1  0  0  0  0  0  0  0  0
    8.5691    0.3675   -0.8266 H   0  0  0  1  0  0  0  0  0  0  0  0
    7.7632   -0.4302   -2.1557 H   0  0  0  1  0  0  0  0  0  0  0  0
    9.2567   -1.0801   -1.5223 H   0  0  0  1  0  0  0  0  0  0  0  0
  1  3  1  0  0  0  0
  1 14  2  0  0  0  0
  1 19  1  0  0  0  0
  2  3  1  0  0  0  0
  2 16  1  0  0  0  0
  2 21  1  0  0  0  0
  3  4  1  0  0  0  0
  3 22  1  0  0  0  0
  4  5  1  0  0  0  0
  4 23  1  0  0  0  0
  4 24  1  0  0  0  0
  5  6  4  0  0  0  0
  5 13  4  0  0  0  0
  6  7  4  0  0  0  0
  6 25  1  0  0  0  0
  7  8  4  0  0  0  0
  7 26  1  0  0  0  0
  8  9  4  0  0  0  0
  8 13  4  0  0  0  0
  9 10  4  0  0  0  0
  9 27  1  0  0  0  0
 10 11  4  0  0  0  0
 10 28  1  0  0  0  0
 11 12  4  0  0  0  0
 11 15  1  0  0  0  0
 12 13  4  0  0  0  0
 12 29  1  0  0  0  0
 16 17  2  0  0  0  0
 16 18  1  0  0  0  0
 18 30  1  0  0  0  0
 18 31  1  0  0  0  0
 18 32  1  0  0  0  0
 19 20  1  0  0  0  0
 19 33  1  0  0  0  0
 20 34  1  0  0  0  0
 20 35  1  0  0  0  0
 20 36  1  0  0  0  0
M  END
> <ConfClashScore>
0 

> <ConfOneFourInteractionScore>
-0.985807 

> <ConfScore>
0.507667 

> <ConfScorePBest>
0.0111845 

> <ConfTolerance>
0.504542 

$$$$
5F-TRP.3D.capped.mmff94s.pdb
 OpenBabel09172212003D

 36 37  0  0  0  0  0  0  0  0999 V2000
    5.5718    0.1748    0.4977 C   0  0  0  1  0  0  0  0  0  0  0  0
    3.4680   -0.9735    1.0190 N   0  0  0  1  0  0  0  0  0  0  0  0
    4.7657   -0.5729    1.5419 C   0  0  0  1  0  0  0  0  0  0  0  0
    5.5449   -1.7420    2.1218 C   0  0  0  1  0  0  0  0  0  0  0  0
    4.8055   -2.5689    3.1393 C   0  0  0  1  0  0  0  0  0  0  0  0
    4.0269   -3.6623    2.8989 C   0  0  0  1  0  0  0  0  0  0  0  0
    3.5059   -4.1405    4.0739 N   0  0  0  1  0  0  0  0  0  0  0  0
    3.9589   -3.3701    5.1097 C   0  0  0  1  0  0  0  0  0  0  0  0
    3.7219   -3.4623    6.4840 C   0  0  0  1  0  0  0  0  0  0  0  0
    4.3140   -2.5193    7.2958 C   0  0  0  1  0  0  0  0  0  0  0  0
    5.1134   -1.5087    6.7710 C   0  0  0  1  0  0  0  0  0  0  0  0
    5.3526   -1.4202    5.4174 C   0  0  0  1  0  0  0  0  0  0  0  0
    4.7766   -2.3667    4.5630 C   0  0  0  1  0  0  0  0  0  0  0  0
    5.3016    0.0754   -0.6984 O   0  0  0  1  0  0  0  0  0  0  0  0
    5.6627   -0.6012    7.6008 F   0  0  0  1  0  0  0  0  0  0  0  0
    2.3709   -0.2855    1.3476 C   0  0  0  1  0  0  0  0  0  0  0  0
    2.4060    0.7701    1.9785 O   0  0  0  1  0  0  0  0  0  0  0  0
    1.0553   -0.8869    0.8928 C   0  0  0  1  0  0  0  0  0  0  0  0
    6.5868    0.9466    0.9176 N   0  0  0  1  0  0  0  0  0  0  0  0
    7.4900    1.7413    0.0987 C   0  0  0  1  0  0  0  0  0  0  0  0
    3.3987   -1.7496    0.4247 H   0  0  0  1  0  0  0  0  0  0  0  0
    4.5925    0.1100    2.3472 H   0  0  0  1  0  0  0  0  0  0  0  0
    6.4250   -1.3525    2.5895 H   0  0  0  1  0  0  0  0  0  0  0  0
    5.8247   -2.3853    1.3139 H   0  0  0  1  0  0  0  0  0  0  0  0
    3.8531   -4.0742    1.9598 H   0  0  0  1  0  0  0  0  0  0  0  0
    2.9055   -4.9104    4.1581 H   0  0  0  1  0  0  0  0  0  0  0  0
    3.1215   -4.2141    6.8790 H   0  0  0  1  0  0  0  0  0  0  0  0
    4.1599   -2.5640    8.3234 H   0  0  0  1  0  0  0  0  0  0  0  0
    5.9526   -0.6611    5.0361 H   0  0  0  1  0  0  0  0  0  0  0  0
    1.2439   -1.7900    0.3508 H   0  0  0  1  0  0  0  0  0  0  0  0
    0.5454   -0.1911    0.2597 H   0  0  0  1  0  0  0  0  0  0  0  0
    0.4484   -1.1039    1.7469 H   0  0  0  1  0  0  0  0  0  0  0  0
    6.7366    0.9785    1.8855 H   0  0  0  1  0  0  0  0  0  0  0  0
    8.4269    1.8510    0.6036 H   0  0  0  1  0  0  0  0  0  0  0  0
    7.0611    2.7069   -0.0706 H   0  0  0  1  0  0  0  0  0  0  0  0
    7.6459    1.2503   -0.8392 H   0  0  0  1  0  0  0  0  0  0  0  0
  1  3  1  0  0  0  0
  1 14  2  0  0  0  0
  1 19  1  0  0  0  0
  2  3  1  0  0  0  0
  2 16  1  0  0  0  0
  2 21  1  0  0  0  0
  3  4  1  0  0  0  0
  3 22  1  0  0  0  0
  4  5  1  0  0  0  0
  4 23  1  0  0  0  0
  4 24  1  0  0  0  0
  5  6  4  0  0  0  0
  5 13  4  0  0  0  0
  6  7  4  0  0  0  0
  6 25  1  0  0  0  0
  7  8  4  0  0  0  0
  7 26  1  0  0  0  0
  8  9  4  0  0  0  0
  8 13  4  0  0  0  0
  9 10  4  0  0  0  0
  9 27  1  0  0  0  0
 10 11  4  0  0  0  0
 10 28  1  0  0  0  0
 11 12  4  0  0  0  0
 11 15  1  0  0  0  0
 12 13  4  0  0  0  0
 12 29  1  0  0  0  0
 16 17  2  0  0  0  0
 16 18  1  0  0  0  0
 18 30  1  0  0  0  0
 18 31  1  0  0  0  0
 18 32  1  0  0  0  0
 19 20  1  0  0  0  0
 19 33  1  0  0  0  0
 20 34  1  0  0  0  0
 20 35  1  0  0  0  0
 20 36  1  0  0  0  0
M  END
> <ConfClashScore>
0 

> <ConfOneFourInteractionScore>
-0.987695 

> <ConfScore>
0.507937 

> <ConfScorePBest>
0.0110815 

> <ConfTolerance>
0.366047 

$$$$
5F-TRP.3D.capped.mmff94s.pdb
 OpenBabel09172212003D

 36 37  0  0  0  0  0  0  0  0999 V2000
    5.5311    0.2439    0.5783 C   0  0  0  1  0  0  0  0  0  0  0  0
    3.7869   -1.4755    0.4018 N   0  0  0  1  0  0  0  0  0  0  0  0
    4.6862   -0.7835    1.3129 C   0  0  0  1  0  0  0  0  0  0  0  0
    5.5449   -1.7420    2.1218 C   0  0  0  1  0  0  0  0  0  0  0  0
    4.8055   -2.5689    3.1393 C   0  0  0  1  0  0  0  0  0  0  0  0
    4.0269   -3.6623    2.8989 C   0  0  0  1  0  0  0  0  0  0  0  0
    3.5059   -4.1405    4.0739 N   0  0  0  1  0  0  0  0  0  0  0  0
    3.9589   -3.3701    5.1097 C   0  0  0  1  0  0  0  0  0  0  0  0
    3.7219   -3.4623    6.4840 C   0  0  0  1  0  0  0  0  0  0  0  0
    4.3140   -2.5193    7.2958 C   0  0  0  1  0  0  0  0  0  0  0  0
    5.1134   -1.5087    6.7710 C   0  0  0  1  0  0  0  0  0  0  0  0
    5.3526   -1.4202    5.4174 C   0  0  0  1  0  0  0  0  0  0  0  0
    4.7766   -2.3667    4.5630 C   0  0  0  1  0  0  0  0  0  0  0  0
    5.7541    0.1428   -0.6274 O   0  0  0  1  0  0  0  0  0  0  0  0
    5.6627   -0.6012    7.6008 F   0  0  0  1  0  0  0  0  0  0  0  0
    2.4679   -1.2862    0.3401 C   0  0  0  1  0  0  0  0  0  0  0  0
    1.8747   -0.5031    1.0635 O   0  0  0  1  0  0  0  0  0  0  0  0
    1.7316   -2.1121   -0.6967 C   0  0  0  1  0  0  0  0  0  0  0  0
    6.0050    1.2459    1.3242 N   0  0  0  1  0  0  0  0  0  0  0  0
    6.7558    2.3271    0.7036 C   0  0  0  1  0  0  0  0  0  0  0  0
    4.1799   -2.1299   -0.2128 H   0  0  0  1  0  0  0  0  0  0  0  0
    4.0839   -0.2445    2.0141 H   0  0  0  1  0  0  0  0  0  0  0  0
    6.2845   -1.1667    2.6384 H   0  0  0  1  0  0  0  0  0  0  0  0
    6.0256   -2.4110    1.4390 H   0  0  0  1  0  0  0  0  0  0  0  0
    3.8531   -4.0742    1.9598 H   0  0  0  1  0  0  0  0  0  0  0  0
    2.9055   -4.9104    4.1581 H   0  0  0  1  0  0  0  0  0  0  0  0
    3.1215   -4.2141    6.8790 H   0  0  0  1  0  0  0  0  0  0  0  0
    4.1599   -2.5640    8.3234 H   0  0  0  1  0  0  0  0  0  0  0  0
    5.9526   -0.6611    5.0361 H   0  0  0  1  0  0  0  0  0  0  0  0
    2.3792   -2.3031   -1.5268 H   0  0  0  1  0  0  0  0  0  0  0  0
    0.8695   -1.5752   -1.0334 H   0  0  0  1  0  0  0  0  0  0  0  0
    1.4266   -3.0409   -0.2616 H   0  0  0  1  0  0  0  0  0  0  0  0
    5.8467    1.2528    2.2914 H   0  0  0  1  0  0  0  0  0  0  0  0
    7.1334    2.9809    1.4618 H   0  0  0  1  0  0  0  0  0  0  0  0
    6.1134    2.8761    0.0471 H   0  0  0  1  0  0  0  0  0  0  0  0
    7.5726    1.9194    0.1455 H   0  0  0  1  0  0  0  0  0  0  0  0
  1  3  1  0  0  0  0
  1 14  2  0  0  0  0
  1 19  1  0  0  0  0
  2  3  1  0  0  0  0
  2 16  1  0  0  0  0
  2 21  1  0  0  0  0
  3  4  1  0  0  0  0
  3 22  1  0  0  0  0
  4  5  1  0  0  0  0
  4 23  1  0  0  0  0
  4 24  1  0  0  0  0
  5  6  4  0  0  0  0
  5 13  4  0  0  0  0
  6  7  4  0  0  0  0
  6 25  1  0  0  0  0
  7  8  4  0  0  0  0
  7 26  1  0  0  0  0
  8  9  4  0  0  0  0
  8 13  4  0  0  0  0
  9 10  4  0  0  0  0
  9 27  1  0  0  0  0
 10 11  4  0  0  0  0
 10 28  1  0  0  0  0
 11 12  4  0  0  0  0
 11 15  1  0  0  0  0
 12 13  4  0  0  0  0
 12 29  1  0  0  0  0
 16 17  2  0  0  0  0
 16 18  1  0  0  0  0
 18 30  1  0  0  0  0
 18 31  1  0  0  0  0
 18 32  1  0  0  0  0
 19 20  1  0  0  0  0
 19 33  1  0  0  0  0
 20 34  1  0  0  0  0
 20 35  1  0  0  0  0
 20 36  1  0  0  0  0
M  END
> <ConfClashScore>
0 

> <ConfOneFourInteractionScore>
-0.981931 

> <ConfScore>
0.512628 

> <ConfScorePBest>
0.0109785 

> <ConfTolerance>
0.392874 

$$$$
5F-TRP.3D.capped.mmff94s.pdb
 OpenBabel09172212003D

 36 37  0  0  0  0  0  0  0  0999 V2000
    5.8377    0.4555    0.9363 C   0  0  0  1  0  0  0  0  0  0  0  0
    3.6155   -0.2649    1.7474 N   0  0  0  1  0  0  0  0  0  0  0  0
    5.0496   -0.2934    1.9933 C   0  0  0  1  0  0  0  0  0  0  0  0
    5.5271   -1.7308    2.1196 C   0  0  0  1  0  0  0  0  0  0  0  0
    4.7956   -2.5669    3.1354 C   0  0  0  1  0  0  0  0  0  0  0  0
    4.0169   -3.6791    2.8793 C   0  0  0  1  0  0  0  0  0  0  0  0
    3.5215   -4.1415    4.0681 N   0  0  0  1  0  0  0  0  0  0  0  0
    3.9668   -3.3582    5.1063 C   0  0  0  1  0  0  0  0  0  0  0  0
    3.7152   -3.4592    6.4813 C   0  0  0  1  0  0  0  0  0  0  0  0
    4.3092   -2.5098    7.3165 C   0  0  0  1  0  0  0  0  0  0  0  0
    5.1157   -1.5114    6.7860 C   0  0  0  1  0  0  0  0  0  0  0  0
    5.3624   -1.4174    5.4160 C   0  0  0  1  0  0  0  0  0  0  0  0
    4.7733   -2.3619    4.5528 C   0  0  0  1  0  0  0  0  0  0  0  0
    6.8019    1.1609    1.2300 O   0  0  0  1  0  0  0  0  0  0  0  0
    5.6747   -0.6100    7.6160 F   0  0  0  1  0  0  0  0  0  0  0  0
    2.8469    0.7607    2.1247 C   0  0  0  1  0  0  0  0  0  0  0  0
    3.2863    1.7453    2.6957 O   0  0  0  1  0  0  0  0  0  0  0  0
    1.3715    0.6330    1.7992 C   0  0  0  1  0  0  0  0  0  0  0  0
    5.3816    0.2688   -0.3073 N   0  0  0  1  0  0  0  0  0  0  0  0
    5.9867    0.9149   -1.4624 C   0  0  0  1  0  0  0  0  0  0  0  0
    3.1991   -1.0244    1.2890 H   0  0  0  1  0  0  0  0  0  0  0  0
    5.2365    0.1861    2.9314 H   0  0  0  1  0  0  0  0  0  0  0  0
    6.5620   -1.7122    2.3910 H   0  0  0  1  0  0  0  0  0  0  0  0
    5.4168   -2.2004    1.1645 H   0  0  0  1  0  0  0  0  0  0  0  0
    3.8379   -4.0941    1.9426 H   0  0  0  1  0  0  0  0  0  0  0  0
    2.9335   -4.9194    4.1654 H   0  0  0  1  0  0  0  0  0  0  0  0
    3.1093   -4.2123    6.8653 H   0  0  0  1  0  0  0  0  0  0  0  0
    4.1462   -2.5510    8.3428 H   0  0  0  1  0  0  0  0  0  0  0  0
    5.9707   -0.6630    5.0386 H   0  0  0  1  0  0  0  0  0  0  0  0
    1.2324    0.6983    0.7403 H   0  0  0  1  0  0  0  0  0  0  0  0
    0.8310    1.4219    2.2790 H   0  0  0  1  0  0  0  0  0  0  0  0
    1.0099   -0.3116    2.1485 H   0  0  0  1  0  0  0  0  0  0  0  0
    4.6132   -0.3236   -0.4453 H   0  0  0  1  0  0  0  0  0  0  0  0
    5.9418    1.9771   -1.3418 H   0  0  0  1  0  0  0  0  0  0  0  0
    5.4547    0.6339   -2.3473 H   0  0  0  1  0  0  0  0  0  0  0  0
    7.0084    0.6087   -1.5475 H   0  0  0  1  0  0  0  0  0  0  0  0
  1  3  1  0  0  0  0
  1 14  2  0  0  0  0
  1 19  1  0  0  0  0
  2  3  1  0  0  0  0
  2 16  1  0  0  0  0
  2 21  1  0  0  0  0
  3  4  1  0  0  0  0
  3 22  1  0  0  0  0
  4  5  1  0  0  0  0
  4 23  1  0  0  0  0
  4 24  1  0  0  0  0
  5  6  4  0  0  0  0
  5 13  4  0  0  0  0
  6  7  4  0  0  0  0
  6 25  1  0  0  0  0
  7  8  4  0  0  0  0
  7 26  1  0  0  0  0
  8  9  4  0  0  0  0
  8 13  4  0  0  0  0
  9 10  4  0  0  0  0
  9 27  1  0  0  0  0
 10 11  4  0  0  0  0
 10 28  1  0  0  0  0
 11 12  4  0  0  0  0
 11 15  1  0  0  0  0
 12 13  4  0  0  0  0
 12 29  1  0  0  0  0
 16 17  2  0  0  0  0
 16 18  1  0  0  0  0
 18 30  1  0  0  0  0
 18 31  1  0  0  0  0
 18 32  1  0  0  0  0
 19 20  1  0  0  0  0
 19 33  1  0  0  0  0
 20 34  1  0  0  0  0
 20 35  1  0  0  0  0
 20 36  1  0  0  0  0
M  END
> <ConfClashScore>
0 

> <ConfOneFourInteractionScore>
-0.960318 

> <ConfScore>
0.516638 

> <ConfScorePBest>
0.0108755 

> <ConfTolerance>
0.588326 

$$$$
5F-TRP.3D.capped.mmff94s.pdb
 OpenBabel09172212003D

 36 37  0  0  0  0  0  0  0  0999 V2000
    3.4934   -0.9228    0.9501 C   0  0  0  1  0  0  0  0  0  0  0  0
    4.4963    0.3944    2.7542 N   0  0  0  1  0  0  0  0  0  0  0  0
    4.7798   -0.4884    1.6325 C   0  0  0  1  0  0  0  0  0  0  0  0
    5.5271   -1.7308    2.1196 C   0  0  0  1  0  0  0  0  0  0  0  0
    4.7956   -2.5669    3.1354 C   0  0  0  1  0  0  0  0  0  0  0  0
    4.0169   -3.6791    2.8793 C   0  0  0  1  0  0  0  0  0  0  0  0
    3.5215   -4.1415    4.0681 N   0  0  0  1  0  0  0  0  0  0  0  0
    3.9668   -3.3582    5.1063 C   0  0  0  1  0  0  0  0  0  0  0  0
    3.7152   -3.4592    6.4813 C   0  0  0  1  0  0  0  0  0  0  0  0
    4.3092   -2.5098    7.3165 C   0  0  0  1  0  0  0  0  0  0  0  0
    5.1157   -1.5114    6.7860 C   0  0  0  1  0  0  0  0  0  0  0  0
    5.3624   -1.4174    5.4160 C   0  0  0  1  0  0  0  0  0  0  0  0
    4.7733   -2.3619    4.5528 C   0  0  0  1  0  0  0  0  0  0  0  0
    3.4751   -1.2310   -0.2386 O   0  0  0  1  0  0  0  0  0  0  0  0
    5.6747   -0.6100    7.6160 F   0  0  0  1  0  0  0  0  0  0  0  0
    3.8208    1.5529    2.6068 C   0  0  0  1  0  0  0  0  0  0  0  0
    3.2781    1.8400    1.5431 O   0  0  0  1  0  0  0  0  0  0  0  0
    3.7507    2.4904    3.7909 C   0  0  0  1  0  0  0  0  0  0  0  0
    2.3965   -0.9444    1.7297 N   0  0  0  1  0  0  0  0  0  0  0  0
    1.1478   -1.4903    1.2192 C   0  0  0  1  0  0  0  0  0  0  0  0
    4.8069    0.1383    3.6477 H   0  0  0  1  0  0  0  0  0  0  0  0
    5.3927    0.0219    0.9192 H   0  0  0  1  0  0  0  0  0  0  0  0
    6.4492   -1.4106    2.5580 H   0  0  0  1  0  0  0  0  0  0  0  0
    5.7310   -2.3478    1.2695 H   0  0  0  1  0  0  0  0  0  0  0  0
    3.8379   -4.0941    1.9426 H   0  0  0  1  0  0  0  0  0  0  0  0
    2.9335   -4.9194    4.1654 H   0  0  0  1  0  0  0  0  0  0  0  0
    3.1093   -4.2123    6.8653 H   0  0  0  1  0  0  0  0  0  0  0  0
    4.1462   -2.5510    8.3428 H   0  0  0  1  0  0  0  0  0  0  0  0
    5.9707   -0.6630    5.0386 H   0  0  0  1  0  0  0  0  0  0  0  0
    3.1266    2.0635    4.5480 H   0  0  0  1  0  0  0  0  0  0  0  0
    3.3415    3.4286    3.4790 H   0  0  0  1  0  0  0  0  0  0  0  0
    4.7342    2.6426    4.1838 H   0  0  0  1  0  0  0  0  0  0  0  0
    2.4387   -0.5919    2.6432 H   0  0  0  1  0  0  0  0  0  0  0  0
    1.3213   -2.4689    0.8229 H   0  0  0  1  0  0  0  0  0  0  0  0
    0.7706   -0.8543    0.4457 H   0  0  0  1  0  0  0  0  0  0  0  0
    0.4332   -1.5489    2.0135 H   0  0  0  1  0  0  0  0  0  0  0  0
  1  3  1  0  0  0  0
  1 14  2  0  0  0  0
  1 19  1  0  0  0  0
  2  3  1  0  0  0  0
  2 16  1  0  0  0  0
  2 21  1  0  0  0  0
  3  4  1  0  0  0  0
  3 22  1  0  0  0  0
  4  5  1  0  0  0  0
  4 23  1  0  0  0  0
  4 24  1  0  0  0  0
  5  6  4  0  0  0  0
  5 13  4  0  0  0  0
  6  7  4  0  0  0  0
  6 25  1  0  0  0  0
  7  8  4  0  0  0  0
  7 26  1  0  0  0  0
  8  9  4  0  0  0  0
  8 13  4  0  0  0  0
  9 10  4  0  0  0  0
  9 27  1  0  0  0  0
 10 11  4  0  0  0  0
 10 28  1  0  0  0  0
 11 12  4  0  0  0  0
 11 15  1  0  0  0  0
 12 13  4  0  0  0  0
 12 29  1  0  0  0  0
 16 17  2  0  0  0  0
 16 18  1  0  0  0  0
 18 30  1  0  0  0  0
 18 31  1  0  0  0  0
 18 32  1  0  0  0  0
 19 20  1  0  0  0  0
 19 33  1  0  0  0  0
 20 34  1  0  0  0  0
 20 35  1  0  0  0  0
 20 36  1  0  0  0  0
M  END
> <ConfClashScore>
0 

> <ConfOneFourInteractionScore>
-0.950605 

> <ConfScore>
0.516663 

> <ConfScorePBest>
0.0107725 

> <ConfTolerance>
0.281337 

$$$$
5F-TRP.3D.capped.mmff94s.pdb
 OpenBabel09172212003D

 36 37  0  0  0  0  0  0  0  0999 V2000
    3.4641   -1.1535    0.9764 C   0  0  0  1  0  0  0  0  0  0  0  0
    4.5160    0.4884    2.3954 N   0  0  0  1  0  0  0  0  0  0  0  0
    4.7971   -0.6015    1.4728 C   0  0  0  1  0  0  0  0  0  0  0  0
    5.5446   -1.7423    2.1223 C   0  0  0  1  0  0  0  0  0  0  0  0
    4.8056   -2.5689    3.1393 C   0  0  0  1  0  0  0  0  0  0  0  0
    4.0269   -3.6623    2.8988 C   0  0  0  1  0  0  0  0  0  0  0  0
    3.5059   -4.1404    4.0739 N   0  0  0  1  0  0  0  0  0  0  0  0
    3.9590   -3.3701    5.1097 C   0  0  0  1  0  0  0  0  0  0  0  0
    3.7220   -3.4623    6.4840 C   0  0  0  1  0  0  0  0  0  0  0  0
    4.3140   -2.5193    7.2958 C   0  0  0  1  0  0  0  0  0  0  0  0
    5.1134   -1.5087    6.7709 C   0  0  0  1  0  0  0  0  0  0  0  0
    5.3526   -1.4202    5.4173 C   0  0  0  1  0  0  0  0  0  0  0  0
    4.7767   -2.3666    4.5630 C   0  0  0  1  0  0  0  0  0  0  0  0
    3.3751   -1.7272   -0.1073 O   0  0  0  1  0  0  0  0  0  0  0  0
    5.6628   -0.6012    7.6008 F   0  0  0  1  0  0  0  0  0  0  0  0
    4.1120    1.6912    1.9771 C   0  0  0  1  0  0  0  0  0  0  0  0
    4.0277    2.0271    0.7966 O   0  0  0  1  0  0  0  0  0  0  0  0
    3.8451    2.7009    3.0949 C   0  0  0  1  0  0  0  0  0  0  0  0
    2.4164   -0.9701    1.7942 N   0  0  0  1  0  0  0  0  0  0  0  0
    1.0798   -1.4406    1.4627 C   0  0  0  1  0  0  0  0  0  0  0  0
    4.6269    0.3346    3.3569 H   0  0  0  1  0  0  0  0  0  0  0  0
    5.3624   -0.2424    0.6383 H   0  0  0  1  0  0  0  0  0  0  0  0
    6.4022   -1.3272    2.6092 H   0  0  0  1  0  0  0  0  0  0  0  0
    5.8615   -2.4026    1.3422 H   0  0  0  1  0  0  0  0  0  0  0  0
    3.8532   -4.0741    1.9598 H   0  0  0  1  0  0  0  0  0  0  0  0
    2.9055   -4.9104    4.1580 H   0  0  0  1  0  0  0  0  0  0  0  0
    3.1216   -4.2140    6.8789 H   0  0  0  1  0  0  0  0  0  0  0  0
    4.1599   -2.5640    8.3234 H   0  0  0  1  0  0  0  0  0  0  0  0
    5.9526   -0.6611    5.0360 H   0  0  0  1  0  0  0  0  0  0  0  0
    3.9282    2.2135    4.0438 H   0  0  0  1  0  0  0  0  0  0  0  0
    2.8591    3.1017    2.9852 H   0  0  0  1  0  0  0  0  0  0  0  0
    4.5614    3.4937    3.0375 H   0  0  0  1  0  0  0  0  0  0  0  0
    2.5561   -0.5031    2.6444 H   0  0  0  1  0  0  0  0  0  0  0  0
    1.1490   -2.2589    0.7768 H   0  0  0  1  0  0  0  0  0  0  0  0
    0.5231   -0.6449    1.0133 H   0  0  0  1  0  0  0  0  0  0  0  0
    0.5844   -1.7639    2.3543 H   0  0  0  1  0  0  0  0  0  0  0  0
  1  3  1  0  0  0  0
  1 14  2  0  0  0  0
  1 19  1  0  0  0  0
  2  3  1  0  0  0  0
  2 16  1  0  0  0  0
  2 21  1  0  0  0  0
  3  4  1  0  0  0  0
  3 22  1  0  0  0  0
  4  5  1  0  0  0  0
  4 23  1  0  0  0  0
  4 24  1  0  0  0  0
  5  6  4  0  0  0  0
  5 13  4  0  0  0  0
  6  7  4  0  0  0  0
  6 25  1  0  0  0  0
  7  8  4  0  0  0  0
  7 26  1  0  0  0  0
  8  9  4  0  0  0  0
  8 13  4  0  0  0  0
  9 10  4  0  0  0  0
  9 27  1  0  0  0  0
 10 11  4  0  0  0  0
 10 28  1  0  0  0  0
 11 12  4  0  0  0  0
 11 15  1  0  0  0  0
 12 13  4  0  0  0  0
 12 29  1  0  0  0  0
 16 17  2  0  0  0  0
 16 18  1  0  0  0  0
 18 30  1  0  0  0  0
 18 31  1  0  0  0  0
 18 32  1  0  0  0  0
 19 20  1  0  0  0  0
 19 33  1  0  0  0  0
 20 34  1  0  0  0  0
 20 35  1  0  0  0  0
 20 36  1  0  0  0  0
M  END
> <ConfClashScore>
0 

> <ConfOneFourInteractionScore>
-0.938406 

> <ConfScore>
0.521649 

> <ConfScorePBest>
0.0106695 

> <ConfTolerance>
0.499073 

$$$$
5F-TRP.3D.capped.mmff94s.pdb
 OpenBabel09172212003D

 36 37  0  0  0  0  0  0  0  0999 V2000
    5.4745    0.3507    0.6441 C   0  0  0  1  0  0  0  0  0  0  0  0
    3.4724   -1.0932    0.8559 N   0  0  0  1  0  0  0  0  0  0  0  0
    4.6688   -0.6048    1.5252 C   0  0  0  1  0  0  0  0  0  0  0  0
    5.5315   -1.7259    2.1130 C   0  0  0  1  0  0  0  0  0  0  0  0
    4.7952   -2.5674    3.1358 C   0  0  0  1  0  0  0  0  0  0  0  0
    4.0164   -3.6796    2.8798 C   0  0  0  1  0  0  0  0  0  0  0  0
    3.5211   -4.1419    4.0688 N   0  0  0  1  0  0  0  0  0  0  0  0
    3.9665   -3.3586    5.1068 C   0  0  0  1  0  0  0  0  0  0  0  0
    3.7150   -3.4594    6.4818 C   0  0  0  1  0  0  0  0  0  0  0  0
    4.3090   -2.5100    7.3169 C   0  0  0  1  0  0  0  0  0  0  0  0
    5.1156   -1.5116    6.7862 C   0  0  0  1  0  0  0  0  0  0  0  0
    5.3621   -1.4178    5.4162 C   0  0  0  1  0  0  0  0  0  0  0  0
    4.7730   -2.3623    4.5531 C   0  0  0  1  0  0  0  0  0  0  0  0
    5.2852    0.3720   -0.5609 O   0  0  0  1  0  0  0  0  0  0  0  0
    5.6746   -0.6101    7.6162 F   0  0  0  1  0  0  0  0  0  0  0  0
    2.4984   -0.2336    0.4989 C   0  0  0  1  0  0  0  0  0  0  0  0
    2.5485    0.9623    0.7348 O   0  0  0  1  0  0  0  0  0  0  0  0
    1.3142   -0.8438   -0.2255 C   0  0  0  1  0  0  0  0  0  0  0  0
    6.3080    1.1952    1.2721 N   0  0  0  1  0  0  0  0  0  0  0  0
    7.0381    2.2365    0.5646 C   0  0  0  1  0  0  0  0  0  0  0  0
    3.3751   -2.0494    0.6645 H   0  0  0  1  0  0  0  0  0  0  0  0
    4.3377   -0.0233    2.3602 H   0  0  0  1  0  0  0  0  0  0  0  0
    6.3856   -1.2866    2.5847 H   0  0  0  1  0  0  0  0  0  0  0  0
    5.8522   -2.3627    1.3152 H   0  0  0  1  0  0  0  0  0  0  0  0
    3.8373   -4.0947    1.9432 H   0  0  0  1  0  0  0  0  0  0  0  0
    2.9331   -4.9199    4.1662 H   0  0  0  1  0  0  0  0  0  0  0  0
    3.1091   -4.2124    6.8659 H   0  0  0  1  0  0  0  0  0  0  0  0
    4.1461   -2.5510    8.3432 H   0  0  0  1  0  0  0  0  0  0  0  0
    5.9704   -0.6634    5.0387 H   0  0  0  1  0  0  0  0  0  0  0  0
    0.9084   -1.6409    0.3617 H   0  0  0  1  0  0  0  0  0  0  0  0
    1.6340   -1.2258   -1.1725 H   0  0  0  1  0  0  0  0  0  0  0  0
    0.5647   -0.0953   -0.3768 H   0  0  0  1  0  0  0  0  0  0  0  0
    6.4290    1.1074    2.2406 H   0  0  0  1  0  0  0  0  0  0  0  0
    7.1574    3.0862    1.2038 H   0  0  0  1  0  0  0  0  0  0  0  0
    6.4927    2.5225   -0.3104 H   0  0  0  1  0  0  0  0  0  0  0  0
    8.0009    1.8664    0.2803 H   0  0  0  1  0  0  0  0  0  0  0  0
  1  3  1  0  0  0  0
  1 14  2  0  0  0  0
  1 19  1  0  0  0  0
  2  3  1  0  0  0  0
  2 16  1  0  0  0  0
  2 21  1  0  0  0  0
  3  4  1  0  0  0  0
  3 22  1  0  0  0  0
  4  5  1  0  0  0  0
  4 23  1  0  0  0  0
  4 24  1  0  0  0  0
  5  6  4  0  0  0  0
  5 13  4  0  0  0  0
  6  7  4  0  0  0  0
  6 25  1  0  0  0  0
  7  8  4  0  0  0  0
  7 26  1  0  0  0  0
  8  9  4  0  0  0  0
  8 13  4  0  0  0  0
  9 10  4  0  0  0  0
  9 27  1  0  0  0  0
 10 11  4  0  0  0  0
 10 28  1  0  0  0  0
 11 12  4  0  0  0  0
 11 15  1  0  0  0  0
 12 13  4  0  0  0  0
 12 29  1  0  0  0  0
 16 17  2  0  0  0  0
 16 18  1  0  0  0  0
 18 30  1  0  0  0  0
 18 31  1  0  0  0  0
 18 32  1  0  0  0  0
 19 20  1  0  0  0  0
 19 33  1  0  0  0  0
 20 34  1  0  0  0  0
 20 35  1  0  0  0  0
 20 36  1  0  0  0  0
M  END
> <ConfClashScore>
0 

> <ConfOneFourInteractionScore>
-0.98382 

> <ConfScore>
0.523563 

> <ConfScorePBest>
0.0105665 

> <ConfTolerance>
0.425285 

$$$$
5F-TRP.3D.capped.mmff94s.pdb
 OpenBabel09172212003D

 36 37  0  0  0  0  0  0  0  0999 V2000
    7.7717   -2.3032    3.2331 C   0  0  0  1  0  0  0  0  0  0  0  0
    6.9686   -3.5307    1.2615 N   0  0  0  1  0  0  0  0  0  0  0  0
    6.9665   -2.2231    1.9466 C   0  0  0  1  0  0  0  0  0  0  0  0
    5.5271   -1.7308    2.1196 C   0  0  0  1  0  0  0  0  0  0  0  0
    4.7956   -2.5669    3.1354 C   0  0  0  1  0  0  0  0  0  0  0  0
    4.0169   -3.6791    2.8793 C   0  0  0  1  0  0  0  0  0  0  0  0
    3.5215   -4.1415    4.0681 N   0  0  0  1  0  0  0  0  0  0  0  0
    3.9668   -3.3582    5.1063 C   0  0  0  1  0  0  0  0  0  0  0  0
    3.7152   -3.4592    6.4813 C   0  0  0  1  0  0  0  0  0  0  0  0
    4.3092   -2.5098    7.3165 C   0  0  0  1  0  0  0  0  0  0  0  0
    5.1157   -1.5114    6.7860 C   0  0  0  1  0  0  0  0  0  0  0  0
    5.3624   -1.4174    5.4160 C   0  0  0  1  0  0  0  0  0  0  0  0
    4.7733   -2.3619    4.5528 C   0  0  0  1  0  0  0  0  0  0  0  0
    8.5230   -1.4284    3.6207 O   0  0  0  1  0  0  0  0  0  0  0  0
    5.6747   -0.6100    7.6160 F   0  0  0  1  0  0  0  0  0  0  0  0
    8.0903   -4.0961    0.8063 C   0  0  0  1  0  0  0  0  0  0  0  0
    9.1997   -3.5880    0.9460 O   0  0  0  1  0  0  0  0  0  0  0  0
    7.9169   -5.4238    0.0947 C   0  0  0  1  0  0  0  0  0  0  0  0
    7.6153   -3.4188    3.9514 N   0  0  0  1  0  0  0  0  0  0  0  0
    8.3092   -3.6352    5.2122 C   0  0  0  1  0  0  0  0  0  0  0  0
    6.1177   -4.0004    1.1362 H   0  0  0  1  0  0  0  0  0  0  0  0
    7.4620   -1.5218    1.3081 H   0  0  0  1  0  0  0  0  0  0  0  0
    5.0188   -1.7957    1.1803 H   0  0  0  1  0  0  0  0  0  0  0  0
    5.5417   -0.7126    2.4482 H   0  0  0  1  0  0  0  0  0  0  0  0
    3.8379   -4.0941    1.9426 H   0  0  0  1  0  0  0  0  0  0  0  0
    2.9335   -4.9194    4.1654 H   0  0  0  1  0  0  0  0  0  0  0  0
    3.1093   -4.2123    6.8653 H   0  0  0  1  0  0  0  0  0  0  0  0
    4.1462   -2.5510    8.3428 H   0  0  0  1  0  0  0  0  0  0  0  0
    5.9707   -0.6630    5.0386 H   0  0  0  1  0  0  0  0  0  0  0  0
    7.3749   -5.2732   -0.8154 H   0  0  0  1  0  0  0  0  0  0  0  0
    7.3751   -6.0978    0.7249 H   0  0  0  1  0  0  0  0  0  0  0  0
    8.8785   -5.8374   -0.1274 H   0  0  0  1  0  0  0  0  0  0  0  0
    7.0124   -4.1156    3.6177 H   0  0  0  1  0  0  0  0  0  0  0  0
    8.9246   -2.7877    5.4313 H   0  0  0  1  0  0  0  0  0  0  0  0
    8.9208   -4.5099    5.1369 H   0  0  0  1  0  0  0  0  0  0  0  0
    7.5923   -3.7670    5.9955 H   0  0  0  1  0  0  0  0  0  0  0  0
  1  3  1  0  0  0  0
  1 14  2  0  0  0  0
  1 19  1  0  0  0  0
  2  3  1  0  0  0  0
  2 16  1  0  0  0  0
  2 21  1  0  0  0  0
  3  4  1  0  0  0  0
  3 22  1  0  0  0  0
  4  5  1  0  0  0  0
  4 23  1  0  0  0  0
  4 24  1  0  0  0  0
  5  6  4  0  0  0  0
  5 13  4  0  0  0  0
  6  7  4  0  0  0  0
  6 25  1  0  0  0  0
  7  8  4  0  0  0  0
  7 26  1  0  0  0  0
  8  9  4  0  0  0  0
  8 13  4  0  0  0  0
  9 10  4  0  0  0  0
  9 27  1  0  0  0  0
 10 11  4  0  0  0  0
 10 28  1  0  0  0  0
 11 12  4  0  0  0  0
 11 15  1  0  0  0  0
 12 13  4  0  0  0  0
 12 29  1  0  0  0  0
 16 17  2  0  0  0  0
 16 18  1  0  0  0  0
 18 30  1  0  0  0  0
 18 31  1  0  0  0  0
 18 32  1  0  0  0  0
 19 20  1  0  0  0  0
 19 33  1  0  0  0  0
 20 34  1  0  0  0  0
 20 35  1  0  0  0  0
 20 36  1  0  0  0  0
M  END
> <ConfClashScore>
0 

> <ConfOneFourInteractionScore>
-0.957074 

> <ConfScore>
0.526675 

> <ConfScorePBest>
0.0104635 

> <ConfTolerance>
0.309344 

$$$$
5F-TRP.3D.capped.mmff94s.pdb
 OpenBabel09172212003D

 36 37  0  0  0  0  0  0  0  0999 V2000
    5.2137   -0.1004    0.1982 C   0  0  0  1  0  0  0  0  0  0  0  0
    3.9308   -2.1119    0.2827 N   0  0  0  1  0  0  0  0  0  0  0  0
    4.5469   -1.0978    1.1253 C   0  0  0  1  0  0  0  0  0  0  0  0
    5.5286   -1.7292    2.1175 C   0  0  0  1  0  0  0  0  0  0  0  0
    4.7955   -2.5670    3.1355 C   0  0  0  1  0  0  0  0  0  0  0  0
    4.0168   -3.6792    2.8794 C   0  0  0  1  0  0  0  0  0  0  0  0
    3.5214   -4.1416    4.0683 N   0  0  0  1  0  0  0  0  0  0  0  0
    3.9667   -3.3584    5.1065 C   0  0  0  1  0  0  0  0  0  0  0  0
    3.7151   -3.4593    6.4815 C   0  0  0  1  0  0  0  0  0  0  0  0
    4.3091   -2.5099    7.3166 C   0  0  0  1  0  0  0  0  0  0  0  0
    5.1157   -1.5115    6.7861 C   0  0  0  1  0  0  0  0  0  0  0  0
    5.3623   -1.4175    5.4161 C   0  0  0  1  0  0  0  0  0  0  0  0
    4.7732   -2.3620    4.5529 C   0  0  0  1  0  0  0  0  0  0  0  0
    5.8417   -0.5393   -0.7644 O   0  0  0  1  0  0  0  0  0  0  0  0
    5.6746   -0.6100    7.6161 F   0  0  0  1  0  0  0  0  0  0  0  0
    2.6339   -2.4205    0.3698 C   0  0  0  1  0  0  0  0  0  0  0  0
    1.8964   -1.9736    1.2472 O   0  0  0  1  0  0  0  0  0  0  0  0
    2.1098   -3.3692   -0.6907 C   0  0  0  1  0  0  0  0  0  0  0  0
    5.0853    1.2006    0.4737 N   0  0  0  1  0  0  0  0  0  0  0  0
    5.5512    2.2374   -0.4351 C   0  0  0  1  0  0  0  0  0  0  0  0
    4.4867   -2.5848   -0.3714 H   0  0  0  1  0  0  0  0  0  0  0  0
    3.7868   -0.5897    1.6812 H   0  0  0  1  0  0  0  0  0  0  0  0
    6.0648   -0.9531    2.6225 H   0  0  0  1  0  0  0  0  0  0  0  0
    6.2172   -2.3496    1.5829 H   0  0  0  1  0  0  0  0  0  0  0  0
    3.8377   -4.0943    1.9428 H   0  0  0  1  0  0  0  0  0  0  0  0
    2.9334   -4.9196    4.1657 H   0  0  0  1  0  0  0  0  0  0  0  0
    3.1092   -4.2123    6.8655 H   0  0  0  1  0  0  0  0  0  0  0  0
    4.1462   -2.5510    8.3429 H   0  0  0  1  0  0  0  0  0  0  0  0
    5.9706   -0.6631    5.0387 H   0  0  0  1  0  0  0  0  0  0  0  0
    2.1505   -2.8925   -1.6478 H   0  0  0  1  0  0  0  0  0  0  0  0
    1.0971   -3.6310   -0.4657 H   0  0  0  1  0  0  0  0  0  0  0  0
    2.7122   -4.2534   -0.7070 H   0  0  0  1  0  0  0  0  0  0  0  0
    4.6626    1.4660    1.3171 H   0  0  0  1  0  0  0  0  0  0  0  0
    5.3823    1.9289   -1.4456 H   0  0  0  1  0  0  0  0  0  0  0  0
    6.5975    2.4011   -0.2826 H   0  0  0  1  0  0  0  0  0  0  0  0
    5.0164    3.1445   -0.2452 H   0  0  0  1  0  0  0  0  0  0  0  0
  1  3  1  0  0  0  0
  1 14  2  0  0  0  0
  1 19  1  0  0  0  0
  2  3  1  0  0  0  0
  2 16  1  0  0  0  0
  2 21  1  0  0  0  0
  3  4  1  0  0  0  0
  3 22  1  0  0  0  0
  4  5  1  0  0  0  0
  4 23  1  0  0  0  0
  4 24  1  0  0  0  0
  5  6  4  0  0  0  0
  5 13  4  0  0  0  0
  6  7  4  0  0  0  0
  6 25  1  0  0  0  0
  7  8  4  0  0  0  0
  7 26  1  0  0  0  0
  8  9  4  0  0  0  0
  8 13  4  0  0  0  0
  9 10  4  0  0  0  0
  9 27  1  0  0  0  0
 10 11  4  0  0  0  0
 10 28  1  0  0  0  0
 11 12  4  0  0  0  0
 11 15  1  0  0  0  0
 12 13  4  0  0  0  0
 12 29  1  0  0  0  0
 16 17  2  0  0  0  0
 16 18  1  0  0  0  0
 18 30  1  0  0  0  0
 18 31  1  0  0  0  0
 18 32  1  0  0  0  0
 19 20  1  0  0  0  0
 19 33  1  0  0  0  0
 20 34  1  0  0  0  0
 20 35  1  0  0  0  0
 20 36  1  0  0  0  0
M  END
> <ConfClashScore>
0 

> <ConfOneFourInteractionScore>
-0.986627 

> <ConfScore>
0.530042 

> <ConfScorePBest>
0.0103605 

> <ConfTolerance>
0.5872 

$$$$
5F-TRP.3D.capped.mmff94s.pdb
 OpenBabel09172212003D

 36 37  0  0  0  0  0  0  0  0999 V2000
    7.8722   -2.1361    2.8112 C   0  0  0  1  0  0  0  0  0  0  0  0
    6.7620   -3.7579    1.3547 N   0  0  0  1  0  0  0  0  0  0  0  0
    6.8627   -2.3440    1.6875 C   0  0  0  1  0  0  0  0  0  0  0  0
    5.5271   -1.7308    2.1196 C   0  0  0  1  0  0  0  0  0  0  0  0
    4.7956   -2.5669    3.1354 C   0  0  0  1  0  0  0  0  0  0  0  0
    4.0169   -3.6791    2.8793 C   0  0  0  1  0  0  0  0  0  0  0  0
    3.5215   -4.1415    4.0681 N   0  0  0  1  0  0  0  0  0  0  0  0
    3.9668   -3.3582    5.1063 C   0  0  0  1  0  0  0  0  0  0  0  0
    3.7152   -3.4592    6.4813 C   0  0  0  1  0  0  0  0  0  0  0  0
    4.3092   -2.5098    7.3165 C   0  0  0  1  0  0  0  0  0  0  0  0
    5.1157   -1.5114    6.7860 C   0  0  0  1  0  0  0  0  0  0  0  0
    5.3624   -1.4174    5.4160 C   0  0  0  1  0  0  0  0  0  0  0  0
    4.7733   -2.3619    4.5528 C   0  0  0  1  0  0  0  0  0  0  0  0
    8.4817   -1.0736    2.9271 O   0  0  0  1  0  0  0  0  0  0  0  0
    5.6747   -0.6100    7.6160 F   0  0  0  1  0  0  0  0  0  0  0  0
    7.8135   -4.4014    0.8066 C   0  0  0  1  0  0  0  0  0  0  0  0
    8.8536   -3.8051    0.5402 O   0  0  0  1  0  0  0  0  0  0  0  0
    7.6746   -5.8854    0.5279 C   0  0  0  1  0  0  0  0  0  0  0  0
    8.0891   -3.2052    3.5826 N   0  0  0  1  0  0  0  0  0  0  0  0
    9.1545   -3.2458    4.5731 C   0  0  0  1  0  0  0  0  0  0  0  0
    5.9286   -4.2431    1.5293 H   0  0  0  1  0  0  0  0  0  0  0  0
    7.2087   -1.8089    0.8279 H   0  0  0  1  0  0  0  0  0  0  0  0
    4.9057   -1.6243    1.2551 H   0  0  0  1  0  0  0  0  0  0  0  0
    5.7164   -0.7671    2.5444 H   0  0  0  1  0  0  0  0  0  0  0  0
    3.8379   -4.0941    1.9426 H   0  0  0  1  0  0  0  0  0  0  0  0
    2.9335   -4.9194    4.1654 H   0  0  0  1  0  0  0  0  0  0  0  0
    3.1093   -4.2123    6.8653 H   0  0  0  1  0  0  0  0  0  0  0  0
    4.1462   -2.5510    8.3428 H   0  0  0  1  0  0  0  0  0  0  0  0
    5.9707   -0.6630    5.0386 H   0  0  0  1  0  0  0  0  0  0  0  0
    7.0898   -6.3406    1.2997 H   0  0  0  1  0  0  0  0  0  0  0  0
    8.6449   -6.3358    0.5033 H   0  0  0  1  0  0  0  0  0  0  0  0
    7.1911   -6.0271   -0.4161 H   0  0  0  1  0  0  0  0  0  0  0  0
    7.5106   -3.9892    3.4777 H   0  0  0  1  0  0  0  0  0  0  0  0
    9.3438   -2.2568    4.9349 H   0  0  0  1  0  0  0  0  0  0  0  0
   10.0435   -3.6375    4.1245 H   0  0  0  1  0  0  0  0  0  0  0  0
    8.8596   -3.8731    5.3882 H   0  0  0  1  0  0  0  0  0  0  0  0
  1  3  1  0  0  0  0
  1 14  2  0  0  0  0
  1 19  1  0  0  0  0
  2  3  1  0  0  0  0
  2 16  1  0  0  0  0
  2 21  1  0  0  0  0
  3  4  1  0  0  0  0
  3 22  1  0  0  0  0
  4  5  1  0  0  0  0
  4 23  1  0  0  0  0
  4 24  1  0  0  0  0
  5  6  4  0  0  0  0
  5 13  4  0  0  0  0
  6  7  4  0  0  0  0
  6 25  1  0  0  0  0
  7  8  4  0  0  0  0
  7 26  1  0  0  0  0
  8  9  4  0  0  0  0
  8 13  4  0  0  0  0
  9 10  4  0  0  0  0
  9 27  1  0  0  0  0
 10 11  4  0  0  0  0
 10 28  1  0  0  0  0
 11 12  4  0  0  0  0
 11 15  1  0  0  0  0
 12 13  4  0  0  0  0
 12 29  1  0  0  0  0
 16 17  2  0  0  0  0
 16 18  1  0  0  0  0
 18 30  1  0  0  0  0
 18 31  1  0  0  0  0
 18 32  1  0  0  0  0
 19 20  1  0  0  0  0
 19 33  1  0  0  0  0
 20 34  1  0  0  0  0
 20 35  1  0  0  0  0
 20 36  1  0  0  0  0
M  END
> <ConfClashScore>
0 

> <ConfOneFourInteractionScore>
-0.931937 

> <ConfScore>
0.534311 

> <ConfScorePBest>
0.0102575 

> <ConfTolerance>
0.479477 

$$$$
5F-TRP.3D.capped.mmff94s.pdb
 OpenBabel09172212003D

 36 37  0  0  0  0  0  0  0  0999 V2000
    7.7062   -1.3339    0.9370 C   0  0  0  1  0  0  0  0  0  0  0  0
    7.6660   -1.2717    3.3287 N   0  0  0  1  0  0  0  0  0  0  0  0
    7.0459   -1.9113    2.1779 C   0  0  0  1  0  0  0  0  0  0  0  0
    5.5265   -1.7315    2.1205 C   0  0  0  1  0  0  0  0  0  0  0  0
    4.7957   -2.5668    3.1354 C   0  0  0  1  0  0  0  0  0  0  0  0
    4.0170   -3.6790    2.8792 C   0  0  0  1  0  0  0  0  0  0  0  0
    3.5215   -4.1414    4.0680 N   0  0  0  1  0  0  0  0  0  0  0  0
    3.9669   -3.3582    5.1062 C   0  0  0  1  0  0  0  0  0  0  0  0
    3.7152   -3.4592    6.4812 C   0  0  0  1  0  0  0  0  0  0  0  0
    4.3092   -2.5098    7.3164 C   0  0  0  1  0  0  0  0  0  0  0  0
    5.1158   -1.5114    6.7859 C   0  0  0  1  0  0  0  0  0  0  0  0
    5.3624   -1.4174    5.4160 C   0  0  0  1  0  0  0  0  0  0  0  0
    4.7734   -2.3618    4.5527 C   0  0  0  1  0  0  0  0  0  0  0  0
    7.7449   -1.9643   -0.1163 O   0  0  0  1  0  0  0  0  0  0  0  0
    5.6747   -0.6100    7.6160 F   0  0  0  1  0  0  0  0  0  0  0  0
    8.8989   -1.5820    3.7394 C   0  0  0  1  0  0  0  0  0  0  0  0
    9.6315   -2.3608    3.1308 O   0  0  0  1  0  0  0  0  0  0  0  0
    9.3539   -0.9121    5.0161 C   0  0  0  1  0  0  0  0  0  0  0  0
    8.2306   -0.1150    1.0735 N   0  0  0  1  0  0  0  0  0  0  0  0
    9.0039    0.5214    0.0176 C   0  0  0  1  0  0  0  0  0  0  0  0
    7.1616   -0.5896    3.8194 H   0  0  0  1  0  0  0  0  0  0  0  0
    7.2540   -2.9604    2.2087 H   0  0  0  1  0  0  0  0  0  0  0  0
    5.1875   -2.0080    1.1440 H   0  0  0  1  0  0  0  0  0  0  0  0
    5.2985   -0.7015    2.2993 H   0  0  0  1  0  0  0  0  0  0  0  0
    3.8379   -4.0940    1.9425 H   0  0  0  1  0  0  0  0  0  0  0  0
    2.9336   -4.9194    4.1653 H   0  0  0  1  0  0  0  0  0  0  0  0
    3.1093   -4.2122    6.8652 H   0  0  0  1  0  0  0  0  0  0  0  0
    4.1462   -2.5510    8.3428 H   0  0  0  1  0  0  0  0  0  0  0  0
    5.9707   -0.6629    5.0386 H   0  0  0  1  0  0  0  0  0  0  0  0
    8.6624   -1.1339    5.8019 H   0  0  0  1  0  0  0  0  0  0  0  0
    9.3968    0.1466    4.8674 H   0  0  0  1  0  0  0  0  0  0  0  0
   10.3246   -1.2750    5.2826 H   0  0  0  1  0  0  0  0  0  0  0  0
    8.0903    0.3688    1.9142 H   0  0  0  1  0  0  0  0  0  0  0  0
    9.2055   -0.1901   -0.7557 H   0  0  0  1  0  0  0  0  0  0  0  0
    9.9275    0.8817    0.4200 H   0  0  0  1  0  0  0  0  0  0  0  0
    8.4472    1.3403   -0.3877 H   0  0  0  1  0  0  0  0  0  0  0  0
  1  3  1  0  0  0  0
  1 14  2  0  0  0  0
  1 19  1  0  0  0  0
  2  3  1  0  0  0  0
  2 16  1  0  0  0  0
  2 21  1  0  0  0  0
  3  4  1  0  0  0  0
  3 22  1  0  0  0  0
  4  5  1  0  0  0  0
  4 23  1  0  0  0  0
  4 24  1  0  0  0  0
  5  6  4  0  0  0  0
  5 13  4  0  0  0  0
  6  7  4  0  0  0  0
  6 25  1  0  0  0  0
  7  8  4  0  0  0  0
  7 26  1  0  0  0  0
  8  9  4  0  0  0  0
  8 13  4  0  0  0  0
  9 10  4  0  0  0  0
  9 27  1  0  0  0  0
 10 11  4  0  0  0  0
 10 28  1  0  0  0  0
 11 12  4  0  0  0  0
 11 15  1  0  0  0  0
 12 13  4  0  0  0  0
 12 29  1  0  0  0  0
 16 17  2  0  0  0  0
 16 18  1  0  0  0  0
 18 30  1  0  0  0  0
 18 31  1  0  0  0  0
 18 32  1  0  0  0  0
 19 20  1  0  0  0  0
 19 33  1  0  0  0  0
 20 34  1  0  0  0  0
 20 35  1  0  0  0  0
 20 36  1  0  0  0  0
M  END
> <ConfClashScore>
0 

> <ConfOneFourInteractionScore>
-0.937775 

> <ConfScore>
0.535709 

> <ConfScorePBest>
0.0101545 

> <ConfTolerance>
0.684882 

$$$$
5F-TRP.3D.capped.mmff94s.pdb
 OpenBabel09172212003D

 36 37  0  0  0  0  0  0  0  0999 V2000
    5.7781    0.6275    1.2421 C   0  0  0  1  0  0  0  0  0  0  0  0
    3.6319   -0.6167    1.0046 N   0  0  0  1  0  0  0  0  0  0  0  0
    4.8229   -0.4062    1.8140 C   0  0  0  1  0  0  0  0  0  0  0  0
    5.5271   -1.7308    2.1196 C   0  0  0  1  0  0  0  0  0  0  0  0
    4.7956   -2.5669    3.1354 C   0  0  0  1  0  0  0  0  0  0  0  0
    4.0169   -3.6791    2.8793 C   0  0  0  1  0  0  0  0  0  0  0  0
    3.5215   -4.1415    4.0681 N   0  0  0  1  0  0  0  0  0  0  0  0
    3.9668   -3.3582    5.1063 C   0  0  0  1  0  0  0  0  0  0  0  0
    3.7152   -3.4592    6.4813 C   0  0  0  1  0  0  0  0  0  0  0  0
    4.3092   -2.5098    7.3165 C   0  0  0  1  0  0  0  0  0  0  0  0
    5.1157   -1.5114    6.7860 C   0  0  0  1  0  0  0  0  0  0  0  0
    5.3624   -1.4174    5.4160 C   0  0  0  1  0  0  0  0  0  0  0  0
    4.7733   -2.3619    4.5528 C   0  0  0  1  0  0  0  0  0  0  0  0
    5.9560    0.7589    0.0423 O   0  0  0  1  0  0  0  0  0  0  0  0
    5.6747   -0.6100    7.6160 F   0  0  0  1  0  0  0  0  0  0  0  0
    2.4113   -0.2051    1.3996 C   0  0  0  1  0  0  0  0  0  0  0  0
    2.1739    0.3587    2.4670 O   0  0  0  1  0  0  0  0  0  0  0  0
    1.3093   -0.5004    0.3902 C   0  0  0  1  0  0  0  0  0  0  0  0
    6.4500    1.4238    2.0785 N   0  0  0  1  0  0  0  0  0  0  0  0
    7.4242    2.3982    1.6102 C   0  0  0  1  0  0  0  0  0  0  0  0
    3.7208   -1.0737    0.1423 H   0  0  0  1  0  0  0  0  0  0  0  0
    4.4950   -0.0205    2.7566 H   0  0  0  1  0  0  0  0  0  0  0  0
    6.5059   -1.5173    2.4955 H   0  0  0  1  0  0  0  0  0  0  0  0
    5.6076   -2.2912    1.2116 H   0  0  0  1  0  0  0  0  0  0  0  0
    3.8379   -4.0941    1.9426 H   0  0  0  1  0  0  0  0  0  0  0  0
    2.9335   -4.9194    4.1654 H   0  0  0  1  0  0  0  0  0  0  0  0
    3.1093   -4.2123    6.8653 H   0  0  0  1  0  0  0  0  0  0  0  0
    4.1462   -2.5510    8.3428 H   0  0  0  1  0  0  0  0  0  0  0  0
    5.9707   -0.6630    5.0386 H   0  0  0  1  0  0  0  0  0  0  0  0
    0.6246   -1.2096    0.8062 H   0  0  0  1  0  0  0  0  0  0  0  0
    1.7416   -0.9033   -0.5018 H   0  0  0  1  0  0  0  0  0  0  0  0
    0.7876    0.4043    0.1572 H   0  0  0  1  0  0  0  0  0  0  0  0
    6.2809    1.3490    3.0409 H   0  0  0  1  0  0  0  0  0  0  0  0
    6.9187    3.1933    1.1031 H   0  0  0  1  0  0  0  0  0  0  0  0
    8.1075    1.9238    0.9372 H   0  0  0  1  0  0  0  0  0  0  0  0
    7.9627    2.7938    2.4459 H   0  0  0  1  0  0  0  0  0  0  0  0
  1  3  1  0  0  0  0
  1 14  2  0  0  0  0
  1 19  1  0  0  0  0
  2  3  1  0  0  0  0
  2 16  1  0  0  0  0
  2 21  1  0  0  0  0
  3  4  1  0  0  0  0
  3 22  1  0  0  0  0
  4  5  1  0  0  0  0
  4 23  1  0  0  0  0
  4 24  1  0  0  0  0
  5  6  4  0  0  0  0
  5 13  4  0  0  0  0
  6  7  4  0  0  0  0
  6 25  1  0  0  0  0
  7  8  4  0  0  0  0
  7 26  1  0  0  0  0
  8  9  4  0  0  0  0
  8 13  4  0  0  0  0
  9 10  4  0  0  0  0
  9 27  1  0  0  0  0
 10 11  4  0  0  0  0
 10 28  1  0  0  0  0
 11 12  4  0  0  0  0
 11 15  1  0  0  0  0
 12 13  4  0  0  0  0
 12 29  1  0  0  0  0
 16 17  2  0  0  0  0
 16 18  1  0  0  0  0
 18 30  1  0  0  0  0
 18 31  1  0  0  0  0
 18 32  1  0  0  0  0
 19 20  1  0  0  0  0
 19 33  1  0  0  0  0
 20 34  1  0  0  0  0
 20 35  1  0  0  0  0
 20 36  1  0  0  0  0
M  END
> <ConfClashScore>
0 

> <ConfOneFourInteractionScore>
-0.978127 

> <ConfScore>
0.538272 

> <ConfScorePBest>
0.0100515 

> <ConfTolerance>
0.609861 

$$$$
5F-TRP.3D.capped.mmff94s.pdb
 OpenBabel09172212003D

 36 37  0  0  0  0  0  0  0  0999 V2000
    7.0509   -3.6843    1.7455 C   0  0  0  1  0  0  0  0  0  0  0  0
    7.6549   -1.4767    0.9095 N   0  0  0  1  0  0  0  0  0  0  0  0
    6.9828   -2.1887    1.9862 C   0  0  0  1  0  0  0  0  0  0  0  0
    5.5271   -1.7308    2.1196 C   0  0  0  1  0  0  0  0  0  0  0  0
    4.7956   -2.5669    3.1354 C   0  0  0  1  0  0  0  0  0  0  0  0
    4.0169   -3.6791    2.8793 C   0  0  0  1  0  0  0  0  0  0  0  0
    3.5215   -4.1415    4.0681 N   0  0  0  1  0  0  0  0  0  0  0  0
    3.9668   -3.3582    5.1063 C   0  0  0  1  0  0  0  0  0  0  0  0
    3.7152   -3.4592    6.4813 C   0  0  0  1  0  0  0  0  0  0  0  0
    4.3092   -2.5098    7.3165 C   0  0  0  1  0  0  0  0  0  0  0  0
    5.1157   -1.5114    6.7860 C   0  0  0  1  0  0  0  0  0  0  0  0
    5.3624   -1.4174    5.4160 C   0  0  0  1  0  0  0  0  0  0  0  0
    4.7733   -2.3619    4.5528 C   0  0  0  1  0  0  0  0  0  0  0  0
    6.5238   -4.1886    0.7548 O   0  0  0  1  0  0  0  0  0  0  0  0
    5.6747   -0.6100    7.6160 F   0  0  0  1  0  0  0  0  0  0  0  0
    8.8065   -0.8250    1.0946 C   0  0  0  1  0  0  0  0  0  0  0  0
    9.4121   -0.8342    2.1536 O   0  0  0  1  0  0  0  0  0  0  0  0
    9.3300   -0.0590   -0.1047 C   0  0  0  1  0  0  0  0  0  0  0  0
    7.7024   -4.4391    2.6443 N   0  0  0  1  0  0  0  0  0  0  0  0
    7.8661   -5.8758    2.4801 C   0  0  0  1  0  0  0  0  0  0  0  0
    7.2486   -1.4751    0.0177 H   0  0  0  1  0  0  0  0  0  0  0  0
    7.4819   -1.9760    2.9084 H   0  0  0  1  0  0  0  0  0  0  0  0
    5.0410   -1.8262    1.1712 H   0  0  0  1  0  0  0  0  0  0  0  0
    5.5085   -0.7067    2.4292 H   0  0  0  1  0  0  0  0  0  0  0  0
    3.8379   -4.0941    1.9426 H   0  0  0  1  0  0  0  0  0  0  0  0
    2.9335   -4.9194    4.1654 H   0  0  0  1  0  0  0  0  0  0  0  0
    3.1093   -4.2123    6.8653 H   0  0  0  1  0  0  0  0  0  0  0  0
    4.1462   -2.5510    8.3428 H   0  0  0  1  0  0  0  0  0  0  0  0
    5.9707   -0.6630    5.0386 H   0  0  0  1  0  0  0  0  0  0  0  0
    8.6710    0.7548   -0.3242 H   0  0  0  1  0  0  0  0  0  0  0  0
    9.3826   -0.7130   -0.9500 H   0  0  0  1  0  0  0  0  0  0  0  0
   10.3059    0.3215    0.1138 H   0  0  0  1  0  0  0  0  0  0  0  0
    8.0810   -4.0077    3.4386 H   0  0  0  1  0  0  0  0  0  0  0  0
    7.0052   -6.2796    1.9894 H   0  0  0  1  0  0  0  0  0  0  0  0
    7.9764   -6.3340    3.4407 H   0  0  0  1  0  0  0  0  0  0  0  0
    8.7369   -6.0702    1.8896 H   0  0  0  1  0  0  0  0  0  0  0  0
  1  3  1  0  0  0  0
  1 14  2  0  0  0  0
  1 19  1  0  0  0  0
  2  3  1  0  0  0  0
  2 16  1  0  0  0  0
  2 21  1  0  0  0  0
  3  4  1  0  0  0  0
  3 22  1  0  0  0  0
  4  5  1  0  0  0  0
  4 23  1  0  0  0  0
  4 24  1  0  0  0  0
  5  6  4  0  0  0  0
  5 13  4  0  0  0  0
  6  7  4  0  0  0  0
  6 25  1  0  0  0  0
  7  8  4  0  0  0  0
  7 26  1  0  0  0  0
  8  9  4  0  0  0  0
  8 13  4  0  0  0  0
  9 10  4  0  0  0  0
  9 27  1  0  0  0  0
 10 11  4  0  0  0  0
 10 28  1  0  0  0  0
 11 12  4  0  0  0  0
 11 15  1  0  0  0  0
 12 13  4  0  0  0  0
 12 29  1  0  0  0  0
 16 17  2  0  0  0  0
 16 18  1  0  0  0  0
 18 30  1  0  0  0  0
 18 31  1  0  0  0  0
 18 32  1  0  0  0  0
 19 20  1  0  0  0  0
 19 33  1  0  0  0  0
 20 34  1  0  0  0  0
 20 35  1  0  0  0  0
 20 36  1  0  0  0  0
M  END
> <ConfClashScore>
0 

> <ConfOneFourInteractionScore>
-0.981931 

> <ConfScore>
0.549324 

> <ConfScorePBest>
0.0099485 

> <ConfTolerance>
0.346716 

$$$$
5F-TRP.3D.capped.mmff94s.pdb
 OpenBabel09172212003D

 36 37  0  0  0  0  0  0  0  0999 V2000
    5.6927   -3.4815    0.3907 C   0  0  0  1  0  0  0  0  0  0  0  0
    7.1011   -1.4828    0.2869 N   0  0  0  1  0  0  0  0  0  0  0  0
    6.4718   -2.4419    1.1794 C   0  0  0  1  0  0  0  0  0  0  0  0
    5.5271   -1.7308    2.1196 C   0  0  0  1  0  0  0  0  0  0  0  0
    4.7956   -2.5669    3.1354 C   0  0  0  1  0  0  0  0  0  0  0  0
    4.0169   -3.6791    2.8793 C   0  0  0  1  0  0  0  0  0  0  0  0
    3.5215   -4.1415    4.0681 N   0  0  0  1  0  0  0  0  0  0  0  0
    3.9668   -3.3582    5.1063 C   0  0  0  1  0  0  0  0  0  0  0  0
    3.7152   -3.4592    6.4813 C   0  0  0  1  0  0  0  0  0  0  0  0
    4.3092   -2.5098    7.3165 C   0  0  0  1  0  0  0  0  0  0  0  0
    5.1157   -1.5114    6.7860 C   0  0  0  1  0  0  0  0  0  0  0  0
    5.3624   -1.4174    5.4160 C   0  0  0  1  0  0  0  0  0  0  0  0
    4.7733   -2.3619    4.5528 C   0  0  0  1  0  0  0  0  0  0  0  0
    5.4933   -4.6044    0.8520 O   0  0  0  1  0  0  0  0  0  0  0  0
    5.6747   -0.6100    7.6160 F   0  0  0  1  0  0  0  0  0  0  0  0
    7.7827   -1.8667   -0.8336 C   0  0  0  1  0  0  0  0  0  0  0  0
    7.8000   -3.0226   -1.2144 O   0  0  0  1  0  0  0  0  0  0  0  0
    8.4932   -0.7271   -1.5283 C   0  0  0  1  0  0  0  0  0  0  0  0
    5.2323   -3.1392   -0.8159 N   0  0  0  1  0  0  0  0  0  0  0  0
    4.5755   -4.0935   -1.6968 C   0  0  0  1  0  0  0  0  0  0  0  0
    7.0343   -0.5277    0.4959 H   0  0  0  1  0  0  0  0  0  0  0  0
    7.2206   -2.9394    1.7596 H   0  0  0  1  0  0  0  0  0  0  0  0
    4.7904   -1.2375    1.5207 H   0  0  0  1  0  0  0  0  0  0  0  0
    6.0978   -1.0019    2.6561 H   0  0  0  1  0  0  0  0  0  0  0  0
    3.8379   -4.0941    1.9426 H   0  0  0  1  0  0  0  0  0  0  0  0
    2.9335   -4.9194    4.1654 H   0  0  0  1  0  0  0  0  0  0  0  0
    3.1093   -4.2123    6.8653 H   0  0  0  1  0  0  0  0  0  0  0  0
    4.1462   -2.5510    8.3428 H   0  0  0  1  0  0  0  0  0  0  0  0
    5.9707   -0.6630    5.0386 H   0  0  0  1  0  0  0  0  0  0  0  0
    7.8696   -0.3385   -2.3061 H   0  0  0  1  0  0  0  0  0  0  0  0
    9.4096   -1.0831   -1.9506 H   0  0  0  1  0  0  0  0  0  0  0  0
    8.7033    0.0467   -0.8198 H   0  0  0  1  0  0  0  0  0  0  0  0
    5.3406   -2.2134   -1.1183 H   0  0  0  1  0  0  0  0  0  0  0  0
    4.2661   -3.5979   -2.5931 H   0  0  0  1  0  0  0  0  0  0  0  0
    3.7197   -4.5039   -1.2028 H   0  0  0  1  0  0  0  0  0  0  0  0
    5.2579   -4.8804   -1.9419 H   0  0  0  1  0  0  0  0  0  0  0  0
  1  3  1  0  0  0  0
  1 14  2  0  0  0  0
  1 19  1  0  0  0  0
  2  3  1  0  0  0  0
  2 16  1  0  0  0  0
  2 21  1  0  0  0  0
  3  4  1  0  0  0  0
  3 22  1  0  0  0  0
  4  5  1  0  0  0  0
  4 23  1  0  0  0  0
  4 24  1  0  0  0  0
  5  6  4  0  0  0  0
  5 13  4  0  0  0  0
  6  7  4  0  0  0  0
  6 25  1  0  0  0  0
  7  8  4  0  0  0  0
  7 26  1  0  0  0  0
  8  9  4  0  0  0  0
  8 13  4  0  0  0  0
  9 10  4  0  0  0  0
  9 27  1  0  0  0  0
 10 11  4  0  0  0  0
 10 28  1  0  0  0  0
 11 12  4  0  0  0  0
 11 15  1  0  0  0  0
 12 13  4  0  0  0  0
 12 29  1  0  0  0  0
 16 17  2  0  0  0  0
 16 18  1  0  0  0  0
 18 30  1  0  0  0  0
 18 31  1  0  0  0  0
 18 32  1  0  0  0  0
 19 20  1  0  0  0  0
 19 33  1  0  0  0  0
 20 34  1  0  0  0  0
 20 35  1  0  0  0  0
 20 36  1  0  0  0  0
M  END
> <ConfClashScore>
0 

> <ConfOneFourInteractionScore>
-0.956443 

> <ConfScore>
0.554425 

> <ConfScorePBest>
0.0098455 

> <ConfTolerance>
0.90847 

$$$$
5F-TRP.3D.capped.mmff94s.pdb
 OpenBabel09172212003D

 36 37  0  0  0  0  0  0  0  0999 V2000
    7.7114   -1.2987    1.0128 C   0  0  0  1  0  0  0  0  0  0  0  0
    7.5695   -1.4915    3.4510 N   0  0  0  1  0  0  0  0  0  0  0  0
    7.0382   -1.9876    2.1903 C   0  0  0  1  0  0  0  0  0  0  0  0
    5.5271   -1.7308    2.1196 C   0  0  0  1  0  0  0  0  0  0  0  0
    4.7956   -2.5669    3.1354 C   0  0  0  1  0  0  0  0  0  0  0  0
    4.0169   -3.6791    2.8793 C   0  0  0  1  0  0  0  0  0  0  0  0
    3.5215   -4.1415    4.0681 N   0  0  0  1  0  0  0  0  0  0  0  0
    3.9668   -3.3582    5.1063 C   0  0  0  1  0  0  0  0  0  0  0  0
    3.7152   -3.4592    6.4813 C   0  0  0  1  0  0  0  0  0  0  0  0
    4.3092   -2.5098    7.3165 C   0  0  0  1  0  0  0  0  0  0  0  0
    5.1157   -1.5114    6.7860 C   0  0  0  1  0  0  0  0  0  0  0  0
    5.3624   -1.4174    5.4160 C   0  0  0  1  0  0  0  0  0  0  0  0
    4.7733   -2.3619    4.5528 C   0  0  0  1  0  0  0  0  0  0  0  0
    8.2437   -0.1970    1.1372 O   0  0  0  1  0  0  0  0  0  0  0  0
    5.6747   -0.6100    7.6160 F   0  0  0  1  0  0  0  0  0  0  0  0
    8.0518   -2.3544    4.3692 C   0  0  0  1  0  0  0  0  0  0  0  0
    7.9504   -3.5705    4.2135 O   0  0  0  1  0  0  0  0  0  0  0  0
    8.7243   -1.7816    5.6017 C   0  0  0  1  0  0  0  0  0  0  0  0
    7.6824   -1.9667   -0.1453 N   0  0  0  1  0  0  0  0  0  0  0  0
    8.1162   -1.3685   -1.3990 C   0  0  0  1  0  0  0  0  0  0  0  0
    7.5769   -0.5287    3.6335 H   0  0  0  1  0  0  0  0  0  0  0  0
    7.2094   -3.0412    2.1169 H   0  0  0  1  0  0  0  0  0  0  0  0
    5.1743   -1.9799    1.1406 H   0  0  0  1  0  0  0  0  0  0  0  0
    5.3376   -0.6960    2.3149 H   0  0  0  1  0  0  0  0  0  0  0  0
    3.8379   -4.0941    1.9426 H   0  0  0  1  0  0  0  0  0  0  0  0
    2.9335   -4.9194    4.1654 H   0  0  0  1  0  0  0  0  0  0  0  0
    3.1093   -4.2123    6.8653 H   0  0  0  1  0  0  0  0  0  0  0  0
    4.1462   -2.5510    8.3428 H   0  0  0  1  0  0  0  0  0  0  0  0
    5.9707   -0.6630    5.0386 H   0  0  0  1  0  0  0  0  0  0  0  0
    9.1456   -0.8264    5.3673 H   0  0  0  1  0  0  0  0  0  0  0  0
    9.5001   -2.4439    5.9247 H   0  0  0  1  0  0  0  0  0  0  0  0
    8.0015   -1.6704    6.3828 H   0  0  0  1  0  0  0  0  0  0  0  0
    7.3575   -2.8913   -0.1499 H   0  0  0  1  0  0  0  0  0  0  0  0
    8.0614   -0.3025   -1.3239 H   0  0  0  1  0  0  0  0  0  0  0  0
    7.4809   -1.7031   -2.1923 H   0  0  0  1  0  0  0  0  0  0  0  0
    9.1254   -1.6600   -1.6025 H   0  0  0  1  0  0  0  0  0  0  0  0
  1  3  1  0  0  0  0
  1 14  2  0  0  0  0
  1 19  1  0  0  0  0
  2  3  1  0  0  0  0
  2 16  1  0  0  0  0
  2 21  1  0  0  0  0
  3  4  1  0  0  0  0
  3 22  1  0  0  0  0
  4  5  1  0  0  0  0
  4 23  1  0  0  0  0
  4 24  1  0  0  0  0
  5  6  4  0  0  0  0
  5 13  4  0  0  0  0
  6  7  4  0  0  0  0
  6 25  1  0  0  0  0
  7  8  4  0  0  0  0
  7 26  1  0  0  0  0
  8  9  4  0  0  0  0
  8 13  4  0  0  0  0
  9 10  4  0  0  0  0
  9 27  1  0  0  0  0
 10 11  4  0  0  0  0
 10 28  1  0  0  0  0
 11 12  4  0  0  0  0
 11 15  1  0  0  0  0
 12 13  4  0  0  0  0
 12 29  1  0  0  0  0
 16 17  2  0  0  0  0
 16 18  1  0  0  0  0
 18 30  1  0  0  0  0
 18 31  1  0  0  0  0
 18 32  1  0  0  0  0
 19 20  1  0  0  0  0
 19 33  1  0  0  0  0
 20 34  1  0  0  0  0
 20 35  1  0  0  0  0
 20 36  1  0  0  0  0
M  END
> <ConfClashScore>
0 

> <ConfOneFourInteractionScore>
-0.986627 

> <ConfScore>
0.555045 

> <ConfScorePBest>
0.0097425 

> <ConfTolerance>
0.674903 

$$$$
5F-TRP.3D.capped.mmff94s.pdb
 OpenBabel09172212003D

 36 37  0  0  0  0  0  0  0  0999 V2000
    3.5448   -0.6888    1.0314 C   0  0  0  1  0  0  0  0  0  0  0  0
    4.6221    0.3493    2.9301 N   0  0  0  1  0  0  0  0  0  0  0  0
    4.8705   -0.4340    1.7290 C   0  0  0  1  0  0  0  0  0  0  0  0
    5.5449   -1.7420    2.1218 C   0  0  0  1  0  0  0  0  0  0  0  0
    4.8055   -2.5689    3.1393 C   0  0  0  1  0  0  0  0  0  0  0  0
    4.0269   -3.6623    2.8989 C   0  0  0  1  0  0  0  0  0  0  0  0
    3.5059   -4.1405    4.0739 N   0  0  0  1  0  0  0  0  0  0  0  0
    3.9589   -3.3701    5.1097 C   0  0  0  1  0  0  0  0  0  0  0  0
    3.7219   -3.4623    6.4840 C   0  0  0  1  0  0  0  0  0  0  0  0
    4.3140   -2.5193    7.2958 C   0  0  0  1  0  0  0  0  0  0  0  0
    5.1134   -1.5087    6.7710 C   0  0  0  1  0  0  0  0  0  0  0  0
    5.3526   -1.4202    5.4174 C   0  0  0  1  0  0  0  0  0  0  0  0
    4.7766   -2.3667    4.5630 C   0  0  0  1  0  0  0  0  0  0  0  0
    2.4831   -0.5205    1.6084 O   0  0  0  1  0  0  0  0  0  0  0  0
    5.6627   -0.6012    7.6008 F   0  0  0  1  0  0  0  0  0  0  0  0
    5.5598    1.1232    3.4840 C   0  0  0  1  0  0  0  0  0  0  0  0
    6.6788    1.2500    3.0149 O   0  0  0  1  0  0  0  0  0  0  0  0
    5.1507    1.8492    4.7508 C   0  0  0  1  0  0  0  0  0  0  0  0
    3.6261   -1.1028   -0.2363 N   0  0  0  1  0  0  0  0  0  0  0  0
    2.4571   -1.5271   -0.9921 C   0  0  0  1  0  0  0  0  0  0  0  0
    3.7363    0.3076    3.3471 H   0  0  0  1  0  0  0  0  0  0  0  0
    5.5155    0.1061    1.0677 H   0  0  0  1  0  0  0  0  0  0  0  0
    6.5088   -1.5087    2.5235 H   0  0  0  1  0  0  0  0  0  0  0  0
    5.6600   -2.3327    1.2371 H   0  0  0  1  0  0  0  0  0  0  0  0
    3.8531   -4.0742    1.9598 H   0  0  0  1  0  0  0  0  0  0  0  0
    2.9055   -4.9104    4.1581 H   0  0  0  1  0  0  0  0  0  0  0  0
    3.1215   -4.2141    6.8790 H   0  0  0  1  0  0  0  0  0  0  0  0
    4.1599   -2.5640    8.3234 H   0  0  0  1  0  0  0  0  0  0  0  0
    5.9526   -0.6611    5.0361 H   0  0  0  1  0  0  0  0  0  0  0  0
    4.9045    1.1347    5.5083 H   0  0  0  1  0  0  0  0  0  0  0  0
    4.2982    2.4638    4.5499 H   0  0  0  1  0  0  0  0  0  0  0  0
    5.9609    2.4615    5.0881 H   0  0  0  1  0  0  0  0  0  0  0  0
    4.5035   -1.1213   -0.6725 H   0  0  0  1  0  0  0  0  0  0  0  0
    1.5969   -0.9901   -0.6507 H   0  0  0  1  0  0  0  0  0  0  0  0
    2.3021   -2.5762   -0.8495 H   0  0  0  1  0  0  0  0  0  0  0  0
    2.6128   -1.3271   -2.0316 H   0  0  0  1  0  0  0  0  0  0  0  0
  1  3  1  0  0  0  0
  1 14  2  0  0  0  0
  1 19  1  0  0  0  0
  2  3  1  0  0  0  0
  2 16  1  0  0  0  0
  2 21  1  0  0  0  0
  3  4  1  0  0  0  0
  3 22  1  0  0  0  0
  4  5  1  0  0  0  0
  4 23  1  0  0  0  0
  4 24  1  0  0  0  0
  5  6  4  0  0  0  0
  5 13  4  0  0  0  0
  6  7  4  0  0  0  0
  6 25  1  0  0  0  0
  7  8  4  0  0  0  0
  7 26  1  0  0  0  0
  8  9  4  0  0  0  0
  8 13  4  0  0  0  0
  9 10  4  0  0  0  0
  9 27  1  0  0  0  0
 10 11  4  0  0  0  0
 10 28  1  0  0  0  0
 11 12  4  0  0  0  0
 11 15  1  0  0  0  0
 12 13  4  0  0  0  0
 12 29  1  0  0  0  0
 16 17  2  0  0  0  0
 16 18  1  0  0  0  0
 18 30  1  0  0  0  0
 18 31  1  0  0  0  0
 18 32  1  0  0  0  0
 19 20  1  0  0  0  0
 19 33  1  0  0  0  0
 20 34  1  0  0  0  0
 20 35  1  0  0  0  0
 20 36  1  0  0  0  0
M  END
> <ConfClashScore>
0 

> <ConfOneFourInteractionScore>
-0.982677 

> <ConfScore>
0.556226 

> <ConfScorePBest>
0.0096395 

> <ConfTolerance>
0.406607 

$$$$
5F-TRP.3D.capped.mmff94s.pdb
 OpenBabel09172212003D

 36 37  0  0  0  0  0  0  0  0999 V2000
    5.7440    0.5924    1.1992 C   0  0  0  1  0  0  0  0  0  0  0  0
    3.6496   -0.1993    2.2552 N   0  0  0  1  0  0  0  0  0  0  0  0
    5.1025   -0.2822    2.2635 C   0  0  0  1  0  0  0  0  0  0  0  0
    5.5449   -1.7420    2.1218 C   0  0  0  1  0  0  0  0  0  0  0  0
    4.8055   -2.5689    3.1393 C   0  0  0  1  0  0  0  0  0  0  0  0
    4.0269   -3.6623    2.8989 C   0  0  0  1  0  0  0  0  0  0  0  0
    3.5059   -4.1405    4.0739 N   0  0  0  1  0  0  0  0  0  0  0  0
    3.9589   -3.3701    5.1097 C   0  0  0  1  0  0  0  0  0  0  0  0
    3.7219   -3.4623    6.4840 C   0  0  0  1  0  0  0  0  0  0  0  0
    4.3140   -2.5193    7.2958 C   0  0  0  1  0  0  0  0  0  0  0  0
    5.1134   -1.5087    6.7710 C   0  0  0  1  0  0  0  0  0  0  0  0
    5.3526   -1.4202    5.4174 C   0  0  0  1  0  0  0  0  0  0  0  0
    4.7766   -2.3667    4.5630 C   0  0  0  1  0  0  0  0  0  0  0  0
    5.1237    1.0069    0.2333 O   0  0  0  1  0  0  0  0  0  0  0  0
    5.6627   -0.6012    7.6008 F   0  0  0  1  0  0  0  0  0  0  0  0
    2.9597    0.3380    3.2654 C   0  0  0  1  0  0  0  0  0  0  0  0
    3.4971    0.8340    4.2547 O   0  0  0  1  0  0  0  0  0  0  0  0
    1.4547    0.3028    3.1249 C   0  0  0  1  0  0  0  0  0  0  0  0
    7.0330    0.9223    1.3203 N   0  0  0  1  0  0  0  0  0  0  0  0
    7.7803    1.5474    0.2392 C   0  0  0  1  0  0  0  0  0  0  0  0
    3.1602   -0.5496    1.4818 H   0  0  0  1  0  0  0  0  0  0  0  0
    5.4510    0.0637    3.2141 H   0  0  0  1  0  0  0  0  0  0  0  0
    6.5984   -1.8174    2.2930 H   0  0  0  1  0  0  0  0  0  0  0  0
    5.3169   -2.0936    1.1373 H   0  0  0  1  0  0  0  0  0  0  0  0
    3.8531   -4.0742    1.9598 H   0  0  0  1  0  0  0  0  0  0  0  0
    2.9055   -4.9104    4.1581 H   0  0  0  1  0  0  0  0  0  0  0  0
    3.1215   -4.2141    6.8790 H   0  0  0  1  0  0  0  0  0  0  0  0
    4.1599   -2.5640    8.3234 H   0  0  0  1  0  0  0  0  0  0  0  0
    5.9526   -0.6611    5.0361 H   0  0  0  1  0  0  0  0  0  0  0  0
    1.1954   -0.0281    2.1410 H   0  0  0  1  0  0  0  0  0  0  0  0
    1.0586    1.2835    3.2870 H   0  0  0  1  0  0  0  0  0  0  0  0
    1.0449   -0.3717    3.8474 H   0  0  0  1  0  0  0  0  0  0  0  0
    7.4912    0.7370    2.1665 H   0  0  0  1  0  0  0  0  0  0  0  0
    7.3193    1.3110   -0.6970 H   0  0  0  1  0  0  0  0  0  0  0  0
    8.7861    1.1822    0.2435 H   0  0  0  1  0  0  0  0  0  0  0  0
    7.7850    2.6086    0.3763 H   0  0  0  1  0  0  0  0  0  0  0  0
  1  3  1  0  0  0  0
  1 14  2  0  0  0  0
  1 19  1  0  0  0  0
  2  3  1  0  0  0  0
  2 16  1  0  0  0  0
  2 21  1  0  0  0  0
  3  4  1  0  0  0  0
  3 22  1  0  0  0  0
  4  5  1  0  0  0  0
  4 23  1  0  0  0  0
  4 24  1  0  0  0  0
  5  6  4  0  0  0  0
  5 13  4  0  0  0  0
  6  7  4  0  0  0  0
  6 25  1  0  0  0  0
  7  8  4  0  0  0  0
  7 26  1  0  0  0  0
  8  9  4  0  0  0  0
  8 13  4  0  0  0  0
  9 10  4  0  0  0  0
  9 27  1  0  0  0  0
 10 11  4  0  0  0  0
 10 28  1  0  0  0  0
 11 12  4  0  0  0  0
 11 15  1  0  0  0  0
 12 13  4  0  0  0  0
 12 29  1  0  0  0  0
 16 17  2  0  0  0  0
 16 18  1  0  0  0  0
 18 30  1  0  0  0  0
 18 31  1  0  0  0  0
 18 32  1  0  0  0  0
 19 20  1  0  0  0  0
 19 33  1  0  0  0  0
 20 34  1  0  0  0  0
 20 35  1  0  0  0  0
 20 36  1  0  0  0  0
M  END
> <ConfClashScore>
0 

> <ConfOneFourInteractionScore>
-0.985807 

> <ConfScore>
0.557773 

> <ConfScorePBest>
0.0095365 

> <ConfTolerance>
0.745885 

$$$$
5F-TRP.3D.capped.mmff94s.pdb
 OpenBabel09172212003D

 36 37  0  0  0  0  0  0  0  0999 V2000
    7.7534   -2.5755    3.0852 C   0  0  0  1  0  0  0  0  0  0  0  0
    6.8090   -3.6058    1.1013 N   0  0  0  1  0  0  0  0  0  0  0  0
    6.9243   -2.3420    1.8330 C   0  0  0  1  0  0  0  0  0  0  0  0
    5.5449   -1.7420    2.1218 C   0  0  0  1  0  0  0  0  0  0  0  0
    4.8055   -2.5689    3.1393 C   0  0  0  1  0  0  0  0  0  0  0  0
    4.0269   -3.6623    2.8989 C   0  0  0  1  0  0  0  0  0  0  0  0
    3.5059   -4.1405    4.0739 N   0  0  0  1  0  0  0  0  0  0  0  0
    3.9589   -3.3701    5.1097 C   0  0  0  1  0  0  0  0  0  0  0  0
    3.7219   -3.4623    6.4840 C   0  0  0  1  0  0  0  0  0  0  0  0
    4.3140   -2.5193    7.2958 C   0  0  0  1  0  0  0  0  0  0  0  0
    5.1134   -1.5087    6.7710 C   0  0  0  1  0  0  0  0  0  0  0  0
    5.3526   -1.4202    5.4174 C   0  0  0  1  0  0  0  0  0  0  0  0
    4.7766   -2.3667    4.5630 C   0  0  0  1  0  0  0  0  0  0  0  0
    7.8624   -3.6972    3.5787 O   0  0  0  1  0  0  0  0  0  0  0  0
    5.6627   -0.6012    7.6008 F   0  0  0  1  0  0  0  0  0  0  0  0
    6.6380   -3.7119   -0.2173 C   0  0  0  1  0  0  0  0  0  0  0  0
    6.5668   -2.7373   -0.9639 O   0  0  0  1  0  0  0  0  0  0  0  0
    6.5345   -5.1213   -0.7549 C   0  0  0  1  0  0  0  0  0  0  0  0
    8.3438   -1.4935    3.6005 N   0  0  0  1  0  0  0  0  0  0  0  0
    9.0696   -1.5301    4.8614 C   0  0  0  1  0  0  0  0  0  0  0  0
    6.8614   -4.4358    1.6197 H   0  0  0  1  0  0  0  0  0  0  0  0
    7.4553   -1.6454    1.2185 H   0  0  0  1  0  0  0  0  0  0  0  0
    4.9781   -1.7128    1.2147 H   0  0  0  1  0  0  0  0  0  0  0  0
    5.6666   -0.7481    2.4990 H   0  0  0  1  0  0  0  0  0  0  0  0
    3.8531   -4.0742    1.9598 H   0  0  0  1  0  0  0  0  0  0  0  0
    2.9055   -4.9104    4.1581 H   0  0  0  1  0  0  0  0  0  0  0  0
    3.1215   -4.2141    6.8790 H   0  0  0  1  0  0  0  0  0  0  0  0
    4.1599   -2.5640    8.3234 H   0  0  0  1  0  0  0  0  0  0  0  0
    5.9526   -0.6611    5.0361 H   0  0  0  1  0  0  0  0  0  0  0  0
    7.3886   -5.6858   -0.4437 H   0  0  0  1  0  0  0  0  0  0  0  0
    6.4961   -5.0931   -1.8238 H   0  0  0  1  0  0  0  0  0  0  0  0
    5.6457   -5.5823   -0.3776 H   0  0  0  1  0  0  0  0  0  0  0  0
    8.2862   -0.6456    3.1124 H   0  0  0  1  0  0  0  0  0  0  0  0
    8.5188   -2.1079    5.5739 H   0  0  0  1  0  0  0  0  0  0  0  0
    9.1936   -0.5334    5.2303 H   0  0  0  1  0  0  0  0  0  0  0  0
   10.0300   -1.9759    4.7070 H   0  0  0  1  0  0  0  0  0  0  0  0
  1  3  1  0  0  0  0
  1 14  2  0  0  0  0
  1 19  1  0  0  0  0
  2  3  1  0  0  0  0
  2 16  1  0  0  0  0
  2 21  1  0  0  0  0
  3  4  1  0  0  0  0
  3 22  1  0  0  0  0
  4  5  1  0  0  0  0
  4 23  1  0  0  0  0
  4 24  1  0  0  0  0
  5  6  4  0  0  0  0
  5 13  4  0  0  0  0
  6  7  4  0  0  0  0
  6 25  1  0  0  0  0
  7  8  4  0  0  0  0
  7 26  1  0  0  0  0
  8  9  4  0  0  0  0
  8 13  4  0  0  0  0
  9 10  4  0  0  0  0
  9 27  1  0  0  0  0
 10 11  4  0  0  0  0
 10 28  1  0  0  0  0
 11 12  4  0  0  0  0
 11 15  1  0  0  0  0
 12 13  4  0  0  0  0
 12 29  1  0  0  0  0
 16 17  2  0  0  0  0
 16 18  1  0  0  0  0
 18 30  1  0  0  0  0
 18 31  1  0  0  0  0
 18 32  1  0  0  0  0
 19 20  1  0  0  0  0
 19 33  1  0  0  0  0
 20 34  1  0  0  0  0
 20 35  1  0  0  0  0
 20 36  1  0  0  0  0
M  END
> <ConfClashScore>
0 

> <ConfOneFourInteractionScore>
-0.987258 

> <ConfScore>
0.561367 

> <ConfScorePBest>
0.00943349 

> <ConfTolerance>
0.355685 

$$$$
5F-TRP.3D.capped.mmff94s.pdb
 OpenBabel09172212003D

 36 37  0  0  0  0  0  0  0  0999 V2000
    5.8646   -1.2573   -0.3890 C   0  0  0  1  0  0  0  0  0  0  0  0
    5.7879   -3.5574    0.4204 N   0  0  0  1  0  0  0  0  0  0  0  0
    5.3048   -2.1975    0.6753 C   0  0  0  1  0  0  0  0  0  0  0  0
    5.5497   -1.7367    2.1147 C   0  0  0  1  0  0  0  0  0  0  0  0
    4.8051   -2.5695    3.1398 C   0  0  0  1  0  0  0  0  0  0  0  0
    4.0263   -3.6629    2.8994 C   0  0  0  1  0  0  0  0  0  0  0  0
    3.5055   -4.1409    4.0746 N   0  0  0  1  0  0  0  0  0  0  0  0
    3.9586   -3.3705    5.1103 C   0  0  0  1  0  0  0  0  0  0  0  0
    3.7217   -3.4625    6.4846 C   0  0  0  1  0  0  0  0  0  0  0  0
    4.3138   -2.5195    7.2963 C   0  0  0  1  0  0  0  0  0  0  0  0
    5.1132   -1.5089    6.7712 C   0  0  0  1  0  0  0  0  0  0  0  0
    5.3523   -1.4206    5.4176 C   0  0  0  1  0  0  0  0  0  0  0  0
    4.7763   -2.3671    4.5634 C   0  0  0  1  0  0  0  0  0  0  0  0
    7.0003   -1.3588   -0.8159 O   0  0  0  1  0  0  0  0  0  0  0  0
    5.6626   -0.6014    7.6009 F   0  0  0  1  0  0  0  0  0  0  0  0
    5.4954   -4.2251   -0.7149 C   0  0  0  1  0  0  0  0  0  0  0  0
    4.7680   -3.7292   -1.5744 O   0  0  0  1  0  0  0  0  0  0  0  0
    6.0882   -5.6033   -0.9018 C   0  0  0  1  0  0  0  0  0  0  0  0
    5.0845   -0.2865   -0.8729 N   0  0  0  1  0  0  0  0  0  0  0  0
    5.5299    0.6182   -1.9222 C   0  0  0  1  0  0  0  0  0  0  0  0
    6.3427   -3.9970    1.0981 H   0  0  0  1  0  0  0  0  0  0  0  0
    4.2436   -2.2100    0.5395 H   0  0  0  1  0  0  0  0  0  0  0  0
    5.2305   -0.7195    2.2056 H   0  0  0  1  0  0  0  0  0  0  0  0
    6.5979   -1.8018    2.3195 H   0  0  0  1  0  0  0  0  0  0  0  0
    3.8525   -4.0749    1.9605 H   0  0  0  1  0  0  0  0  0  0  0  0
    2.9050   -4.9108    4.1589 H   0  0  0  1  0  0  0  0  0  0  0  0
    3.1213   -4.2142    6.8797 H   0  0  0  1  0  0  0  0  0  0  0  0
    4.1598   -2.5640    8.3239 H   0  0  0  1  0  0  0  0  0  0  0  0
    5.9522   -0.6615    5.0362 H   0  0  0  1  0  0  0  0  0  0  0  0
    5.9253   -6.1849   -0.0185 H   0  0  0  1  0  0  0  0  0  0  0  0
    7.1392   -5.5177   -1.0834 H   0  0  0  1  0  0  0  0  0  0  0  0
    5.6195   -6.0828   -1.7356 H   0  0  0  1  0  0  0  0  0  0  0  0
    4.1810   -0.1800   -0.5086 H   0  0  0  1  0  0  0  0  0  0  0  0
    6.3299    0.1646   -2.4691 H   0  0  0  1  0  0  0  0  0  0  0  0
    5.8716    1.5323   -1.4833 H   0  0  0  1  0  0  0  0  0  0  0  0
    4.7157    0.8229   -2.5856 H   0  0  0  1  0  0  0  0  0  0  0  0
  1  3  1  0  0  0  0
  1 14  2  0  0  0  0
  1 19  1  0  0  0  0
  2  3  1  0  0  0  0
  2 16  1  0  0  0  0
  2 21  1  0  0  0  0
  3  4  1  0  0  0  0
  3 22  1  0  0  0  0
  4  5  1  0  0  0  0
  4 23  1  0  0  0  0
  4 24  1  0  0  0  0
  5  6  4  0  0  0  0
  5 13  4  0  0  0  0
  6  7  4  0  0  0  0
  6 25  1  0  0  0  0
  7  8  4  0  0  0  0
  7 26  1  0  0  0  0
  8  9  4  0  0  0  0
  8 13  4  0  0  0  0
  9 10  4  0  0  0  0
  9 27  1  0  0  0  0
 10 11  4  0  0  0  0
 10 28  1  0  0  0  0
 11 12  4  0  0  0  0
 11 15  1  0  0  0  0
 12 13  4  0  0  0  0
 12 29  1  0  0  0  0
 16 17  2  0  0  0  0
 16 18  1  0  0  0  0
 18 30  1  0  0  0  0
 18 31  1  0  0  0  0
 18 32  1  0  0  0  0
 19 20  1  0  0  0  0
 19 33  1  0  0  0  0
 20 34  1  0  0  0  0
 20 35  1  0  0  0  0
 20 36  1  0  0  0  0
M  END
> <ConfClashScore>
0 

> <ConfOneFourInteractionScore>
-0.97449 

> <ConfScore>
0.564089 

> <ConfScorePBest>
0.00933049 

> <ConfTolerance>
0.4131 

$$$$
5F-TRP.3D.capped.mmff94s.pdb
 OpenBabel09172212003D

 36 37  0  0  0  0  0  0  0  0999 V2000
    3.6483   -1.1506    0.6338 C   0  0  0  1  0  0  0  0  0  0  0  0
    4.1408    0.2330    2.6317 N   0  0  0  1  0  0  0  0  0  0  0  0
    4.7140   -0.5856    1.5737 C   0  0  0  1  0  0  0  0  0  0  0  0
    5.5449   -1.7420    2.1218 C   0  0  0  1  0  0  0  0  0  0  0  0
    4.8055   -2.5689    3.1393 C   0  0  0  1  0  0  0  0  0  0  0  0
    4.0269   -3.6623    2.8989 C   0  0  0  1  0  0  0  0  0  0  0  0
    3.5059   -4.1405    4.0739 N   0  0  0  1  0  0  0  0  0  0  0  0
    3.9589   -3.3701    5.1097 C   0  0  0  1  0  0  0  0  0  0  0  0
    3.7219   -3.4623    6.4840 C   0  0  0  1  0  0  0  0  0  0  0  0
    4.3140   -2.5193    7.2958 C   0  0  0  1  0  0  0  0  0  0  0  0
    5.1134   -1.5087    6.7710 C   0  0  0  1  0  0  0  0  0  0  0  0
    5.3526   -1.4202    5.4174 C   0  0  0  1  0  0  0  0  0  0  0  0
    4.7766   -2.3667    4.5630 C   0  0  0  1  0  0  0  0  0  0  0  0
    3.7995   -1.1910   -0.5736 O   0  0  0  1  0  0  0  0  0  0  0  0
    5.6627   -0.6012    7.6008 F   0  0  0  1  0  0  0  0  0  0  0  0
    3.1887    1.1401    2.3957 C   0  0  0  1  0  0  0  0  0  0  0  0
    2.6921    1.3108    1.2945 O   0  0  0  1  0  0  0  0  0  0  0  0
    2.7504    1.9615    3.5925 C   0  0  0  1  0  0  0  0  0  0  0  0
    2.5103   -1.6173    1.1500 N   0  0  0  1  0  0  0  0  0  0  0  0
    1.4770   -2.3123    0.3969 C   0  0  0  1  0  0  0  0  0  0  0  0
    4.4644    0.1147    3.5491 H   0  0  0  1  0  0  0  0  0  0  0  0
    5.3653    0.0287    0.9877 H   0  0  0  1  0  0  0  0  0  0  0  0
    6.4239   -1.3415    2.5821 H   0  0  0  1  0  0  0  0  0  0  0  0
    5.8257   -2.3759    1.3068 H   0  0  0  1  0  0  0  0  0  0  0  0
    3.8531   -4.0742    1.9598 H   0  0  0  1  0  0  0  0  0  0  0  0
    2.9055   -4.9104    4.1581 H   0  0  0  1  0  0  0  0  0  0  0  0
    3.1215   -4.2141    6.8790 H   0  0  0  1  0  0  0  0  0  0  0  0
    4.1599   -2.5640    8.3234 H   0  0  0  1  0  0  0  0  0  0  0  0
    5.9526   -0.6611    5.0361 H   0  0  0  1  0  0  0  0  0  0  0  0
    3.3933    1.7547    4.4224 H   0  0  0  1  0  0  0  0  0  0  0  0
    1.7434    1.7073    3.8498 H   0  0  0  1  0  0  0  0  0  0  0  0
    2.8052    3.0022    3.3499 H   0  0  0  1  0  0  0  0  0  0  0  0
    2.3586   -1.4820    2.1087 H   0  0  0  1  0  0  0  0  0  0  0  0
    1.4964   -1.9851   -0.6217 H   0  0  0  1  0  0  0  0  0  0  0  0
    0.5194   -2.0961    0.8225 H   0  0  0  1  0  0  0  0  0  0  0  0
    1.6556   -3.3665    0.4360 H   0  0  0  1  0  0  0  0  0  0  0  0
  1  3  1  0  0  0  0
  1 14  2  0  0  0  0
  1 19  1  0  0  0  0
  2  3  1  0  0  0  0
  2 16  1  0  0  0  0
  2 21  1  0  0  0  0
  3  4  1  0  0  0  0
  3 22  1  0  0  0  0
  4  5  1  0  0  0  0
  4 23  1  0  0  0  0
  4 24  1  0  0  0  0
  5  6  4  0  0  0  0
  5 13  4  0  0  0  0
  6  7  4  0  0  0  0
  6 25  1  0  0  0  0
  7  8  4  0  0  0  0
  7 26  1  0  0  0  0
  8  9  4  0  0  0  0
  8 13  4  0  0  0  0
  9 10  4  0  0  0  0
  9 27  1  0  0  0  0
 10 11  4  0  0  0  0
 10 28  1  0  0  0  0
 11 12  4  0  0  0  0
 11 15  1  0  0  0  0
 12 13  4  0  0  0  0
 12 29  1  0  0  0  0
 16 17  2  0  0  0  0
 16 18  1  0  0  0  0
 18 30  1  0  0  0  0
 18 31  1  0  0  0  0
 18 32  1  0  0  0  0
 19 20  1  0  0  0  0
 19 33  1  0  0  0  0
 20 34  1  0  0  0  0
 20 35  1  0  0  0  0
 20 36  1  0  0  0  0
M  END
> <ConfClashScore>
0 

> <ConfOneFourInteractionScore>
-0.950605 

> <ConfScore>
0.567201 

> <ConfScorePBest>
0.00922749 

> <ConfTolerance>
0.766181 

$$$$
5F-TRP.3D.capped.mmff94s.pdb
 OpenBabel09172212003D

 36 37  0  0  0  0  0  0  0  0999 V2000
    3.8687    0.1246    2.3114 C   0  0  0  1  0  0  0  0  0  0  0  0
    5.6040    0.1724    0.5895 N   0  0  0  1  0  0  0  0  0  0  0  0
    4.7278   -0.7005    1.3578 C   0  0  0  1  0  0  0  0  0  0  0  0
    5.5268   -1.7312    2.1201 C   0  0  0  1  0  0  0  0  0  0  0  0
    4.7956   -2.5668    3.1354 C   0  0  0  1  0  0  0  0  0  0  0  0
    4.0170   -3.6790    2.8792 C   0  0  0  1  0  0  0  0  0  0  0  0
    3.5215   -4.1414    4.0681 N   0  0  0  1  0  0  0  0  0  0  0  0
    3.9668   -3.3582    5.1062 C   0  0  0  1  0  0  0  0  0  0  0  0
    3.7152   -3.4592    6.4812 C   0  0  0  1  0  0  0  0  0  0  0  0
    4.3092   -2.5098    7.3165 C   0  0  0  1  0  0  0  0  0  0  0  0
    5.1158   -1.5114    6.7860 C   0  0  0  1  0  0  0  0  0  0  0  0
    5.3624   -1.4174    5.4160 C   0  0  0  1  0  0  0  0  0  0  0  0
    4.7734   -2.3619    4.5527 C   0  0  0  1  0  0  0  0  0  0  0  0
    4.3536    0.6233    3.3262 O   0  0  0  1  0  0  0  0  0  0  0  0
    5.6747   -0.6100    7.6160 F   0  0  0  1  0  0  0  0  0  0  0  0
    5.4347    0.3809   -0.7193 C   0  0  0  1  0  0  0  0  0  0  0  0
    4.5381   -0.1488   -1.3704 O   0  0  0  1  0  0  0  0  0  0  0  0
    6.4277    1.3242   -1.3699 C   0  0  0  1  0  0  0  0  0  0  0  0
    2.5772    0.2883    2.0113 N   0  0  0  1  0  0  0  0  0  0  0  0
    1.6634    1.0156    2.8796 C   0  0  0  1  0  0  0  0  0  0  0  0
    6.3436    0.6227    1.0484 H   0  0  0  1  0  0  0  0  0  0  0  0
    4.0753   -1.2179    0.6859 H   0  0  0  1  0  0  0  0  0  0  0  0
    6.3088   -1.2133    2.6351 H   0  0  0  1  0  0  0  0  0  0  0  0
    5.9537   -2.4002    1.4024 H   0  0  0  1  0  0  0  0  0  0  0  0
    3.8379   -4.0940    1.9426 H   0  0  0  1  0  0  0  0  0  0  0  0
    2.9335   -4.9194    4.1654 H   0  0  0  1  0  0  0  0  0  0  0  0
    3.1093   -4.2122    6.8652 H   0  0  0  1  0  0  0  0  0  0  0  0
    4.1462   -2.5510    8.3428 H   0  0  0  1  0  0  0  0  0  0  0  0
    5.9707   -0.6630    5.0386 H   0  0  0  1  0  0  0  0  0  0  0  0
    6.9694    1.8508   -0.6121 H   0  0  0  1  0  0  0  0  0  0  0  0
    5.9031    2.0250   -1.9852 H   0  0  0  1  0  0  0  0  0  0  0  0
    7.1114    0.7625   -1.9715 H   0  0  0  1  0  0  0  0  0  0  0  0
    2.2332   -0.0947    1.1774 H   0  0  0  1  0  0  0  0  0  0  0  0
    2.2242    1.5957    3.5824 H   0  0  0  1  0  0  0  0  0  0  0  0
    1.0427    0.3208    3.4057 H   0  0  0  1  0  0  0  0  0  0  0  0
    1.0516    1.6651    2.2891 H   0  0  0  1  0  0  0  0  0  0  0  0
  1  3  1  0  0  0  0
  1 14  2  0  0  0  0
  1 19  1  0  0  0  0
  2  3  1  0  0  0  0
  2 16  1  0  0  0  0
  2 21  1  0  0  0  0
  3  4  1  0  0  0  0
  3 22  1  0  0  0  0
  4  5  1  0  0  0  0
  4 23  1  0  0  0  0
  4 24  1  0  0  0  0
  5  6  4  0  0  0  0
  5 13  4  0  0  0  0
  6  7  4  0  0  0  0
  6 25  1  0  0  0  0
  7  8  4  0  0  0  0
  7 26  1  0  0  0  0
  8  9  4  0  0  0  0
  8 13  4  0  0  0  0
  9 10  4  0  0  0  0
  9 27  1  0  0  0  0
 10 11  4  0  0  0  0
 10 28  1  0  0  0  0
 11 12  4  0  0  0  0
 11 15  1  0  0  0  0
 12 13  4  0  0  0  0
 12 29  1  0  0  0  0
 16 17  2  0  0  0  0
 16 18  1  0  0  0  0
 18 30  1  0  0  0  0
 18 31  1  0  0  0  0
 18 32  1  0  0  0  0
 19 20  1  0  0  0  0
 19 33  1  0  0  0  0
 20 34  1  0  0  0  0
 20 35  1  0  0  0  0
 20 36  1  0  0  0  0
M  END
> <ConfClashScore>
0 

> <ConfOneFourInteractionScore>
-0.975259 

> <ConfScore>
0.568036 

> <ConfScorePBest>
0.00912449 

> <ConfTolerance>
0.437701 

$$$$
5F-TRP.3D.capped.mmff94s.pdb
 OpenBabel09172212003D

 36 37  0  0  0  0  0  0  0  0999 V2000
    7.8528   -2.0275    3.0310 C   0  0  0  1  0  0  0  0  0  0  0  0
    6.9418   -3.6925    1.5594 N   0  0  0  1  0  0  0  0  0  0  0  0
    6.9467   -2.2634    1.8340 C   0  0  0  1  0  0  0  0  0  0  0  0
    5.5449   -1.7420    2.1218 C   0  0  0  1  0  0  0  0  0  0  0  0
    4.8055   -2.5689    3.1393 C   0  0  0  1  0  0  0  0  0  0  0  0
    4.0269   -3.6623    2.8989 C   0  0  0  1  0  0  0  0  0  0  0  0
    3.5059   -4.1405    4.0739 N   0  0  0  1  0  0  0  0  0  0  0  0
    3.9589   -3.3701    5.1097 C   0  0  0  1  0  0  0  0  0  0  0  0
    3.7219   -3.4623    6.4840 C   0  0  0  1  0  0  0  0  0  0  0  0
    4.3140   -2.5193    7.2958 C   0  0  0  1  0  0  0  0  0  0  0  0
    5.1134   -1.5087    6.7710 C   0  0  0  1  0  0  0  0  0  0  0  0
    5.3526   -1.4202    5.4174 C   0  0  0  1  0  0  0  0  0  0  0  0
    4.7766   -2.3667    4.5630 C   0  0  0  1  0  0  0  0  0  0  0  0
    8.0589   -2.9115    3.8584 O   0  0  0  1  0  0  0  0  0  0  0  0
    5.6627   -0.6012    7.6008 F   0  0  0  1  0  0  0  0  0  0  0  0
    6.7884   -4.1971    0.2860 C   0  0  0  1  0  0  0  0  0  0  0  0
    6.6305   -3.4418   -0.6545 O   0  0  0  1  0  0  0  0  0  0  0  0
    6.8307   -5.6924    0.1631 C   0  0  0  1  0  0  0  0  0  0  0  0
    8.4006   -0.8056    3.1156 N   0  0  0  1  0  0  0  0  0  0  0  0
    9.1940   -0.3870    4.2616 C   0  0  0  1  0  0  0  0  0  0  0  0
    7.0513   -4.3179    2.3060 H   0  0  0  1  0  0  0  0  0  0  0  0
    7.3422   -1.7353    0.9916 H   0  0  0  1  0  0  0  0  0  0  0  0
    4.9862   -1.7454    1.2092 H   0  0  0  1  0  0  0  0  0  0  0  0
    5.6230   -0.7400    2.4890 H   0  0  0  1  0  0  0  0  0  0  0  0
    3.8531   -4.0742    1.9598 H   0  0  0  1  0  0  0  0  0  0  0  0
    2.9055   -4.9104    4.1581 H   0  0  0  1  0  0  0  0  0  0  0  0
    3.1215   -4.2141    6.8790 H   0  0  0  1  0  0  0  0  0  0  0  0
    4.1599   -2.5640    8.3234 H   0  0  0  1  0  0  0  0  0  0  0  0
    5.9526   -0.6611    5.0361 H   0  0  0  1  0  0  0  0  0  0  0  0
    7.7879   -6.0499    0.4808 H   0  0  0  1  0  0  0  0  0  0  0  0
    6.6667   -5.9710   -0.8568 H   0  0  0  1  0  0  0  0  0  0  0  0
    6.0677   -6.1222    0.7779 H   0  0  0  1  0  0  0  0  0  0  0  0
    8.2617   -0.1731    2.3801 H   0  0  0  1  0  0  0  0  0  0  0  0
    9.9082   -1.1477    4.4986 H   0  0  0  1  0  0  0  0  0  0  0  0
    8.5505   -0.2281    5.1016 H   0  0  0  1  0  0  0  0  0  0  0  0
    9.7065    0.5225    4.0272 H   0  0  0  1  0  0  0  0  0  0  0  0
  1  3  1  0  0  0  0
  1 14  2  0  0  0  0
  1 19  1  0  0  0  0
  2  3  1  0  0  0  0
  2 16  1  0  0  0  0
  2 21  1  0  0  0  0
  3  4  1  0  0  0  0
  3 22  1  0  0  0  0
  4  5  1  0  0  0  0
  4 23  1  0  0  0  0
  4 24  1  0  0  0  0
  5  6  4  0  0  0  0
  5 13  4  0  0  0  0
  6  7  4  0  0  0  0
  6 25  1  0  0  0  0
  7  8  4  0  0  0  0
  7 26  1  0  0  0  0
  8  9  4  0  0  0  0
  8 13  4  0  0  0  0
  9 10  4  0  0  0  0
  9 27  1  0  0  0  0
 10 11  4  0  0  0  0
 10 28  1  0  0  0  0
 11 12  4  0  0  0  0
 11 15  1  0  0  0  0
 12 13  4  0  0  0  0
 12 29  1  0  0  0  0
 16 17  2  0  0  0  0
 16 18  1  0  0  0  0
 18 30  1  0  0  0  0
 18 31  1  0  0  0  0
 18 32  1  0  0  0  0
 19 20  1  0  0  0  0
 19 33  1  0  0  0  0
 20 34  1  0  0  0  0
 20 35  1  0  0  0  0
 20 36  1  0  0  0  0
M  END
> <ConfClashScore>
0 

> <ConfOneFourInteractionScore>
-0.982677 

> <ConfScore>
0.570678 

> <ConfScorePBest>
0.00902149 

> <ConfTolerance>
0.425039 

$$$$
5F-TRP.3D.capped.mmff94s.pdb
 OpenBabel09172212003D

 36 37  0  0  0  0  0  0  0  0999 V2000
    7.2095   -1.6095    0.3325 C   0  0  0  1  0  0  0  0  0  0  0  0
    7.2502   -3.4777    1.9206 N   0  0  0  1  0  0  0  0  0  0  0  0
    6.3856   -2.5809    1.1682 C   0  0  0  1  0  0  0  0  0  0  0  0
    5.5449   -1.7420    2.1218 C   0  0  0  1  0  0  0  0  0  0  0  0
    4.8055   -2.5689    3.1393 C   0  0  0  1  0  0  0  0  0  0  0  0
    4.0269   -3.6623    2.8989 C   0  0  0  1  0  0  0  0  0  0  0  0
    3.5059   -4.1405    4.0739 N   0  0  0  1  0  0  0  0  0  0  0  0
    3.9589   -3.3701    5.1097 C   0  0  0  1  0  0  0  0  0  0  0  0
    3.7219   -3.4623    6.4840 C   0  0  0  1  0  0  0  0  0  0  0  0
    4.3140   -2.5193    7.2958 C   0  0  0  1  0  0  0  0  0  0  0  0
    5.1134   -1.5087    6.7710 C   0  0  0  1  0  0  0  0  0  0  0  0
    5.3526   -1.4202    5.4174 C   0  0  0  1  0  0  0  0  0  0  0  0
    4.7766   -2.3667    4.5630 C   0  0  0  1  0  0  0  0  0  0  0  0
    8.3288   -1.2475    0.6928 O   0  0  0  1  0  0  0  0  0  0  0  0
    5.6627   -0.6012    7.6008 F   0  0  0  1  0  0  0  0  0  0  0  0
    7.1273   -4.8009    1.7821 C   0  0  0  1  0  0  0  0  0  0  0  0
    6.3300   -5.3214    1.0043 O   0  0  0  1  0  0  0  0  0  0  0  0
    8.0412   -5.6419    2.6520 C   0  0  0  1  0  0  0  0  0  0  0  0
    6.6390   -1.1887   -0.7968 N   0  0  0  1  0  0  0  0  0  0  0  0
    7.2259   -0.2280   -1.7190 C   0  0  0  1  0  0  0  0  0  0  0  0
    7.9239   -3.1103    2.5301 H   0  0  0  1  0  0  0  0  0  0  0  0
    5.7369   -3.1402    0.5269 H   0  0  0  1  0  0  0  0  0  0  0  0
    4.8306   -1.1883    1.5489 H   0  0  0  1  0  0  0  0  0  0  0  0
    6.1911   -1.0637    2.6388 H   0  0  0  1  0  0  0  0  0  0  0  0
    3.8531   -4.0742    1.9598 H   0  0  0  1  0  0  0  0  0  0  0  0
    2.9055   -4.9104    4.1581 H   0  0  0  1  0  0  0  0  0  0  0  0
    3.1215   -4.2141    6.8790 H   0  0  0  1  0  0  0  0  0  0  0  0
    4.1599   -2.5640    8.3234 H   0  0  0  1  0  0  0  0  0  0  0  0
    5.9526   -0.6611    5.0361 H   0  0  0  1  0  0  0  0  0  0  0  0
    9.0582   -5.4829    2.3599 H   0  0  0  1  0  0  0  0  0  0  0  0
    7.7938   -6.6761    2.5332 H   0  0  0  1  0  0  0  0  0  0  0  0
    7.9164   -5.3602    3.6767 H   0  0  0  1  0  0  0  0  0  0  0  0
    5.7581   -1.5539   -1.0228 H   0  0  0  1  0  0  0  0  0  0  0  0
    7.2863    0.7300   -1.2462 H   0  0  0  1  0  0  0  0  0  0  0  0
    6.6151   -0.1554   -2.5945 H   0  0  0  1  0  0  0  0  0  0  0  0
    8.2077   -0.5522   -1.9943 H   0  0  0  1  0  0  0  0  0  0  0  0
  1  3  1  0  0  0  0
  1 14  2  0  0  0  0
  1 19  1  0  0  0  0
  2  3  1  0  0  0  0
  2 16  1  0  0  0  0
  2 21  1  0  0  0  0
  3  4  1  0  0  0  0
  3 22  1  0  0  0  0
  4  5  1  0  0  0  0
  4 23  1  0  0  0  0
  4 24  1  0  0  0  0
  5  6  4  0  0  0  0
  5 13  4  0  0  0  0
  6  7  4  0  0  0  0
  6 25  1  0  0  0  0
  7  8  4  0  0  0  0
  7 26  1  0  0  0  0
  8  9  4  0  0  0  0
  8 13  4  0  0  0  0
  9 10  4  0  0  0  0
  9 27  1  0  0  0  0
 10 11  4  0  0  0  0
 10 28  1  0  0  0  0
 11 12  4  0  0  0  0
 11 15  1  0  0  0  0
 12 13  4  0  0  0  0
 12 29  1  0  0  0  0
 16 17  2  0  0  0  0
 16 18  1  0  0  0  0
 18 30  1  0  0  0  0
 18 31  1  0  0  0  0
 18 32  1  0  0  0  0
 19 20  1  0  0  0  0
 19 33  1  0  0  0  0
 20 34  1  0  0  0  0
 20 35  1  0  0  0  0
 20 36  1  0  0  0  0
M  END
> <ConfClashScore>
0 

> <ConfOneFourInteractionScore>
-0.990503 

> <ConfScore>
0.574446 

> <ConfScorePBest>
0.00891849 

> <ConfTolerance>
0.607034 

$$$$
5F-TRP.3D.capped.mmff94s.pdb
 OpenBabel09172212003D

 36 37  0  0  0  0  0  0  0  0999 V2000
    5.8891   -1.0255   -0.2275 C   0  0  0  1  0  0  0  0  0  0  0  0
    5.6689   -3.4298    0.3784 N   0  0  0  1  0  0  0  0  0  0  0  0
    5.2396   -2.0701    0.6694 C   0  0  0  1  0  0  0  0  0  0  0  0
    5.5449   -1.7420    2.1218 C   0  0  0  1  0  0  0  0  0  0  0  0
    4.8055   -2.5689    3.1393 C   0  0  0  1  0  0  0  0  0  0  0  0
    4.0269   -3.6623    2.8989 C   0  0  0  1  0  0  0  0  0  0  0  0
    3.5059   -4.1405    4.0739 N   0  0  0  1  0  0  0  0  0  0  0  0
    3.9589   -3.3701    5.1097 C   0  0  0  1  0  0  0  0  0  0  0  0
    3.7219   -3.4623    6.4840 C   0  0  0  1  0  0  0  0  0  0  0  0
    4.3140   -2.5193    7.2958 C   0  0  0  1  0  0  0  0  0  0  0  0
    5.1134   -1.5087    6.7710 C   0  0  0  1  0  0  0  0  0  0  0  0
    5.3526   -1.4202    5.4174 C   0  0  0  1  0  0  0  0  0  0  0  0
    4.7766   -2.3667    4.5630 C   0  0  0  1  0  0  0  0  0  0  0  0
    7.0480   -1.1582   -0.6119 O   0  0  0  1  0  0  0  0  0  0  0  0
    5.6627   -0.6012    7.6008 F   0  0  0  1  0  0  0  0  0  0  0  0
    4.8270   -4.3622   -0.0763 C   0  0  0  1  0  0  0  0  0  0  0  0
    3.6117   -4.1870   -0.1537 O   0  0  0  1  0  0  0  0  0  0  0  0
    5.4616   -5.6726   -0.5000 C   0  0  0  1  0  0  0  0  0  0  0  0
    5.1615    0.0372   -0.5828 N   0  0  0  1  0  0  0  0  0  0  0  0
    5.7127    1.1276   -1.3735 C   0  0  0  1  0  0  0  0  0  0  0  0
    6.6083   -3.6699    0.5210 H   0  0  0  1  0  0  0  0  0  0  0  0
    4.1799   -2.0069    0.5351 H   0  0  0  1  0  0  0  0  0  0  0  0
    5.2958   -0.7146    2.2875 H   0  0  0  1  0  0  0  0  0  0  0  0
    6.5936   -1.8851    2.2791 H   0  0  0  1  0  0  0  0  0  0  0  0
    3.8531   -4.0742    1.9598 H   0  0  0  1  0  0  0  0  0  0  0  0
    2.9055   -4.9104    4.1581 H   0  0  0  1  0  0  0  0  0  0  0  0
    3.1215   -4.2141    6.8790 H   0  0  0  1  0  0  0  0  0  0  0  0
    4.1599   -2.5640    8.3234 H   0  0  0  1  0  0  0  0  0  0  0  0
    5.9526   -0.6611    5.0361 H   0  0  0  1  0  0  0  0  0  0  0  0
    4.6958   -6.3955   -0.6894 H   0  0  0  1  0  0  0  0  0  0  0  0
    6.1016   -6.0274    0.2807 H   0  0  0  1  0  0  0  0  0  0  0  0
    6.0352   -5.5194   -1.3902 H   0  0  0  1  0  0  0  0  0  0  0  0
    4.2240    0.0841   -0.3012 H   0  0  0  1  0  0  0  0  0  0  0  0
    6.7689    1.1872   -1.2125 H   0  0  0  1  0  0  0  0  0  0  0  0
    5.2547    2.0486   -1.0786 H   0  0  0  1  0  0  0  0  0  0  0  0
    5.5198    0.9488   -2.4106 H   0  0  0  1  0  0  0  0  0  0  0  0
  1  3  1  0  0  0  0
  1 14  2  0  0  0  0
  1 19  1  0  0  0  0
  2  3  1  0  0  0  0
  2 16  1  0  0  0  0
  2 21  1  0  0  0  0
  3  4  1  0  0  0  0
  3 22  1  0  0  0  0
  4  5  1  0  0  0  0
  4 23  1  0  0  0  0
  4 24  1  0  0  0  0
  5  6  4  0  0  0  0
  5 13  4  0  0  0  0
  6  7  4  0  0  0  0
  6 25  1  0  0  0  0
  7  8  4  0  0  0  0
  7 26  1  0  0  0  0
  8  9  4  0  0  0  0
  8 13  4  0  0  0  0
  9 10  4  0  0  0  0
  9 27  1  0  0  0  0
 10 11  4  0  0  0  0
 10 28  1  0  0  0  0
 11 12  4  0  0  0  0
 11 15  1  0  0  0  0
 12 13  4  0  0  0  0
 12 29  1  0  0  0  0
 16 17  2  0  0  0  0
 16 18  1  0  0  0  0
 18 30  1  0  0  0  0
 18 31  1  0  0  0  0
 18 32  1  0  0  0  0
 19 20  1  0  0  0  0
 19 33  1  0  0  0  0
 20 34  1  0  0  0  0
 20 35  1  0  0  0  0
 20 36  1  0  0  0  0
M  END
> <ConfClashScore>
0 

> <ConfOneFourInteractionScore>
-0.97449 

> <ConfScore>
0.575807 

> <ConfScorePBest>
0.00881549 

> <ConfTolerance>
0.775132 

$$$$
5F-TRP.3D.capped.mmff94s.pdb
 OpenBabel09172212003D

 36 37  0  0  0  0  0  0  0  0999 V2000
    6.8489   -3.6096    1.1049 C   0  0  0  1  0  0  0  0  0  0  0  0
    7.6706   -1.3127    0.9851 N   0  0  0  1  0  0  0  0  0  0  0  0
    6.9301   -2.2595    1.8056 C   0  0  0  1  0  0  0  0  0  0  0  0
    5.5271   -1.7308    2.1196 C   0  0  0  1  0  0  0  0  0  0  0  0
    4.7956   -2.5669    3.1354 C   0  0  0  1  0  0  0  0  0  0  0  0
    4.0169   -3.6791    2.8793 C   0  0  0  1  0  0  0  0  0  0  0  0
    3.5215   -4.1415    4.0681 N   0  0  0  1  0  0  0  0  0  0  0  0
    3.9668   -3.3582    5.1063 C   0  0  0  1  0  0  0  0  0  0  0  0
    3.7152   -3.4592    6.4813 C   0  0  0  1  0  0  0  0  0  0  0  0
    4.3092   -2.5098    7.3165 C   0  0  0  1  0  0  0  0  0  0  0  0
    5.1157   -1.5114    6.7860 C   0  0  0  1  0  0  0  0  0  0  0  0
    5.3624   -1.4174    5.4160 C   0  0  0  1  0  0  0  0  0  0  0  0
    4.7733   -2.3619    4.5528 C   0  0  0  1  0  0  0  0  0  0  0  0
    6.2080   -3.7516    0.0759 O   0  0  0  1  0  0  0  0  0  0  0  0
    5.6747   -0.6100    7.6160 F   0  0  0  1  0  0  0  0  0  0  0  0
    8.7779   -0.7047    1.4201 C   0  0  0  1  0  0  0  0  0  0  0  0
    9.2334   -0.8382    2.5551 O   0  0  0  1  0  0  0  0  0  0  0  0
    9.5196    0.2046    0.4599 C   0  0  0  1  0  0  0  0  0  0  0  0
    7.5181   -4.6078    1.6887 N   0  0  0  1  0  0  0  0  0  0  0  0
    7.5028   -5.9394    1.1018 C   0  0  0  1  0  0  0  0  0  0  0  0
    7.3456   -1.1142    0.0821 H   0  0  0  1  0  0  0  0  0  0  0  0
    7.4473   -2.3962    2.7323 H   0  0  0  1  0  0  0  0  0  0  0  0
    4.9571   -1.7190    1.2142 H   0  0  0  1  0  0  0  0  0  0  0  0
    5.6157   -0.7342    2.4990 H   0  0  0  1  0  0  0  0  0  0  0  0
    3.8379   -4.0941    1.9426 H   0  0  0  1  0  0  0  0  0  0  0  0
    2.9335   -4.9194    4.1654 H   0  0  0  1  0  0  0  0  0  0  0  0
    3.1093   -4.2123    6.8653 H   0  0  0  1  0  0  0  0  0  0  0  0
    4.1462   -2.5510    8.3428 H   0  0  0  1  0  0  0  0  0  0  0  0
    5.9707   -0.6630    5.0386 H   0  0  0  1  0  0  0  0  0  0  0  0
    9.7672   -0.3391   -0.4278 H   0  0  0  1  0  0  0  0  0  0  0  0
   10.4171    0.5570    0.9240 H   0  0  0  1  0  0  0  0  0  0  0  0
    8.8980    1.0377    0.2059 H   0  0  0  1  0  0  0  0  0  0  0  0
    8.0203   -4.4429    2.5139 H   0  0  0  1  0  0  0  0  0  0  0  0
    7.7923   -6.6583    1.8396 H   0  0  0  1  0  0  0  0  0  0  0  0
    8.1884   -5.9751    0.2811 H   0  0  0  1  0  0  0  0  0  0  0  0
    6.5164   -6.1639    0.7532 H   0  0  0  1  0  0  0  0  0  0  0  0
  1  3  1  0  0  0  0
  1 14  2  0  0  0  0
  1 19  1  0  0  0  0
  2  3  1  0  0  0  0
  2 16  1  0  0  0  0
  2 21  1  0  0  0  0
  3  4  1  0  0  0  0
  3 22  1  0  0  0  0
  4  5  1  0  0  0  0
  4 23  1  0  0  0  0
  4 24  1  0  0  0  0
  5  6  4  0  0  0  0
  5 13  4  0  0  0  0
  6  7  4  0  0  0  0
  6 25  1  0  0  0  0
  7  8  4  0  0  0  0
  7 26  1  0  0  0  0
  8  9  4  0  0  0  0
  8 13  4  0  0  0  0
  9 10  4  0  0  0  0
  9 27  1  0  0  0  0
 10 11  4  0  0  0  0
 10 28  1  0  0  0  0
 11 12  4  0  0  0  0
 11 15  1  0  0  0  0
 12 13  4  0  0  0  0
 12 29  1  0  0  0  0
 16 17  2  0  0  0  0
 16 18  1  0  0  0  0
 18 30  1  0  0  0  0
 18 31  1  0  0  0  0
 18 32  1  0  0  0  0
 19 20  1  0  0  0  0
 19 33  1  0  0  0  0
 20 34  1  0  0  0  0
 20 35  1  0  0  0  0
 20 36  1  0  0  0  0
M  END
> <ConfClashScore>
0 

> <ConfOneFourInteractionScore>
-0.97615 

> <ConfScore>
0.575867 

> <ConfScorePBest>
0.00871249 

> <ConfTolerance>
0.429677 

$$$$
5F-TRP.3D.capped.mmff94s.pdb
 OpenBabel09172212003D

 36 37  0  0  0  0  0  0  0  0999 V2000
    4.8661    0.4837    3.0700 C   0  0  0  1  0  0  0  0  0  0  0  0
    5.5178    0.2816    0.7227 N   0  0  0  1  0  0  0  0  0  0  0  0
    4.8637   -0.4026    1.8281 C   0  0  0  1  0  0  0  0  0  0  0  0
    5.5449   -1.7420    2.1218 C   0  0  0  1  0  0  0  0  0  0  0  0
    4.8055   -2.5689    3.1393 C   0  0  0  1  0  0  0  0  0  0  0  0
    4.0269   -3.6623    2.8989 C   0  0  0  1  0  0  0  0  0  0  0  0
    3.5059   -4.1405    4.0739 N   0  0  0  1  0  0  0  0  0  0  0  0
    3.9589   -3.3701    5.1097 C   0  0  0  1  0  0  0  0  0  0  0  0
    3.7219   -3.4623    6.4840 C   0  0  0  1  0  0  0  0  0  0  0  0
    4.3140   -2.5193    7.2958 C   0  0  0  1  0  0  0  0  0  0  0  0
    5.1134   -1.5087    6.7710 C   0  0  0  1  0  0  0  0  0  0  0  0
    5.3526   -1.4202    5.4174 C   0  0  0  1  0  0  0  0  0  0  0  0
    4.7766   -2.3667    4.5630 C   0  0  0  1  0  0  0  0  0  0  0  0
    5.9132    0.9253    3.5359 O   0  0  0  1  0  0  0  0  0  0  0  0
    5.6627   -0.6012    7.6008 F   0  0  0  1  0  0  0  0  0  0  0  0
    4.8497    0.6657   -0.3824 C   0  0  0  1  0  0  0  0  0  0  0  0
    3.6574    0.4470   -0.5911 O   0  0  0  1  0  0  0  0  0  0  0  0
    5.7078    1.4136   -1.3842 C   0  0  0  1  0  0  0  0  0  0  0  0
    3.6698    0.7387    3.6022 N   0  0  0  1  0  0  0  0  0  0  0  0
    3.5155    1.4443    4.8656 C   0  0  0  1  0  0  0  0  0  0  0  0
    6.4777    0.4695    0.7844 H   0  0  0  1  0  0  0  0  0  0  0  0
    3.8461   -0.5999    1.5625 H   0  0  0  1  0  0  0  0  0  0  0  0
    6.5305   -1.5490    2.4909 H   0  0  0  1  0  0  0  0  0  0  0  0
    5.6075   -2.2993    1.2105 H   0  0  0  1  0  0  0  0  0  0  0  0
    3.8531   -4.0742    1.9598 H   0  0  0  1  0  0  0  0  0  0  0  0
    2.9055   -4.9104    4.1581 H   0  0  0  1  0  0  0  0  0  0  0  0
    3.1215   -4.2141    6.8790 H   0  0  0  1  0  0  0  0  0  0  0  0
    4.1599   -2.5640    8.3234 H   0  0  0  1  0  0  0  0  0  0  0  0
    5.9526   -0.6611    5.0361 H   0  0  0  1  0  0  0  0  0  0  0  0
    5.9913    2.3607   -0.9748 H   0  0  0  1  0  0  0  0  0  0  0  0
    5.1518    1.5670   -2.2854 H   0  0  0  1  0  0  0  0  0  0  0  0
    6.5857    0.8410   -1.5992 H   0  0  0  1  0  0  0  0  0  0  0  0
    2.8670    0.4406    3.1259 H   0  0  0  1  0  0  0  0  0  0  0  0
    2.5601    1.9254    4.8917 H   0  0  0  1  0  0  0  0  0  0  0  0
    4.2873    2.1794    4.9600 H   0  0  0  1  0  0  0  0  0  0  0  0
    3.5856    0.7470    5.6742 H   0  0  0  1  0  0  0  0  0  0  0  0
  1  3  1  0  0  0  0
  1 14  2  0  0  0  0
  1 19  1  0  0  0  0
  2  3  1  0  0  0  0
  2 16  1  0  0  0  0
  2 21  1  0  0  0  0
  3  4  1  0  0  0  0
  3 22  1  0  0  0  0
  4  5  1  0  0  0  0
  4 23  1  0  0  0  0
  4 24  1  0  0  0  0
  5  6  4  0  0  0  0
  5 13  4  0  0  0  0
  6  7  4  0  0  0  0
  6 25  1  0  0  0  0
  7  8  4  0  0  0  0
  7 26  1  0  0  0  0
  8  9  4  0  0  0  0
  8 13  4  0  0  0  0
  9 10  4  0  0  0  0
  9 27  1  0  0  0  0
 10 11  4  0  0  0  0
 10 28  1  0  0  0  0
 11 12  4  0  0  0  0
 11 15  1  0  0  0  0
 12 13  4  0  0  0  0
 12 29  1  0  0  0  0
 16 17  2  0  0  0  0
 16 18  1  0  0  0  0
 18 30  1  0  0  0  0
 18 31  1  0  0  0  0
 18 32  1  0  0  0  0
 19 20  1  0  0  0  0
 19 33  1  0  0  0  0
 20 34  1  0  0  0  0
 20 35  1  0  0  0  0
 20 36  1  0  0  0  0
M  END
> <ConfClashScore>
0 

> <ConfOneFourInteractionScore>
-0.978127 

> <ConfScore>
0.576723 

> <ConfScorePBest>
0.00860949 

> <ConfTolerance>
0.464944 

$$$$
5F-TRP.3D.capped.mmff94s.pdb
 OpenBabel09172212003D

 36 37  0  0  0  0  0  0  0  0999 V2000
    4.1077    0.2947    2.5600 C   0  0  0  1  0  0  0  0  0  0  0  0
    5.4576    0.0338    0.4936 N   0  0  0  1  0  0  0  0  0  0  0  0
    4.6563   -0.6442    1.5027 C   0  0  0  1  0  0  0  0  0  0  0  0
    5.5271   -1.7308    2.1196 C   0  0  0  1  0  0  0  0  0  0  0  0
    4.7956   -2.5669    3.1354 C   0  0  0  1  0  0  0  0  0  0  0  0
    4.0169   -3.6791    2.8793 C   0  0  0  1  0  0  0  0  0  0  0  0
    3.5215   -4.1415    4.0681 N   0  0  0  1  0  0  0  0  0  0  0  0
    3.9668   -3.3582    5.1063 C   0  0  0  1  0  0  0  0  0  0  0  0
    3.7152   -3.4592    6.4813 C   0  0  0  1  0  0  0  0  0  0  0  0
    4.3092   -2.5098    7.3165 C   0  0  0  1  0  0  0  0  0  0  0  0
    5.1157   -1.5114    6.7860 C   0  0  0  1  0  0  0  0  0  0  0  0
    5.3624   -1.4174    5.4160 C   0  0  0  1  0  0  0  0  0  0  0  0
    4.7733   -2.3619    4.5528 C   0  0  0  1  0  0  0  0  0  0  0  0
    4.6924    1.3076    2.8986 O   0  0  0  1  0  0  0  0  0  0  0  0
    5.6747   -0.6100    7.6160 F   0  0  0  1  0  0  0  0  0  0  0  0
    4.9110    0.9457   -0.3965 C   0  0  0  1  0  0  0  0  0  0  0  0
    3.7236    1.1977   -0.3154 O   0  0  0  1  0  0  0  0  0  0  0  0
    5.7996    1.5856   -1.4229 C   0  0  0  1  0  0  0  0  0  0  0  0
    2.9416    0.0047    3.1440 N   0  0  0  1  0  0  0  0  0  0  0  0
    2.2834    0.9209    4.0633 C   0  0  0  1  0  0  0  0  0  0  0  0
    6.4166   -0.1611    0.4418 H   0  0  0  1  0  0  0  0  0  0  0  0
    3.8281   -1.1217    1.0220 H   0  0  0  1  0  0  0  0  0  0  0  0
    6.3629   -1.2659    2.5994 H   0  0  0  1  0  0  0  0  0  0  0  0
    5.8757   -2.3727    1.3377 H   0  0  0  1  0  0  0  0  0  0  0  0
    3.8379   -4.0941    1.9426 H   0  0  0  1  0  0  0  0  0  0  0  0
    2.9335   -4.9194    4.1654 H   0  0  0  1  0  0  0  0  0  0  0  0
    3.1093   -4.2123    6.8653 H   0  0  0  1  0  0  0  0  0  0  0  0
    4.1462   -2.5510    8.3428 H   0  0  0  1  0  0  0  0  0  0  0  0
    5.9707   -0.6630    5.0386 H   0  0  0  1  0  0  0  0  0  0  0  0
    6.7298    1.8584   -0.9697 H   0  0  0  1  0  0  0  0  0  0  0  0
    5.3223    2.4609   -1.8116 H   0  0  0  1  0  0  0  0  0  0  0  0
    5.9803    0.8939   -2.2190 H   0  0  0  1  0  0  0  0  0  0  0  0
    2.5145   -0.8549    2.9463 H   0  0  0  1  0  0  0  0  0  0  0  0
    3.0209    1.4414    4.6380 H   0  0  0  1  0  0  0  0  0  0  0  0
    1.6442    0.3688    4.7202 H   0  0  0  1  0  0  0  0  0  0  0  0
    1.7013    1.6263    3.5079 H   0  0  0  1  0  0  0  0  0  0  0  0
  1  3  1  0  0  0  0
  1 14  2  0  0  0  0
  1 19  1  0  0  0  0
  2  3  1  0  0  0  0
  2 16  1  0  0  0  0
  2 21  1  0  0  0  0
  3  4  1  0  0  0  0
  3 22  1  0  0  0  0
  4  5  1  0  0  0  0
  4 23  1  0  0  0  0
  4 24  1  0  0  0  0
  5  6  4  0  0  0  0
  5 13  4  0  0  0  0
  6  7  4  0  0  0  0
  6 25  1  0  0  0  0
  7  8  4  0  0  0  0
  7 26  1  0  0  0  0
  8  9  4  0  0  0  0
  8 13  4  0  0  0  0
  9 10  4  0  0  0  0
  9 27  1  0  0  0  0
 10 11  4  0  0  0  0
 10 28  1  0  0  0  0
 11 12  4  0  0  0  0
 11 15  1  0  0  0  0
 12 13  4  0  0  0  0
 12 29  1  0  0  0  0
 16 17  2  0  0  0  0
 16 18  1  0  0  0  0
 18 30  1  0  0  0  0
 18 31  1  0  0  0  0
 18 32  1  0  0  0  0
 19 20  1  0  0  0  0
 19 33  1  0  0  0  0
 20 34  1  0  0  0  0
 20 35  1  0  0  0  0
 20 36  1  0  0  0  0
M  END
> <ConfClashScore>
0 

> <ConfOneFourInteractionScore>
-0.981931 

> <ConfScore>
0.579047 

> <ConfScorePBest>
0.00850649 

> <ConfTolerance>
0.415681 

$$$$
5F-TRP.3D.capped.mmff94s.pdb
 OpenBabel09172212003D

 36 37  0  0  0  0  0  0  0  0999 V2000
    7.0629   -3.5828    1.3635 C   0  0  0  1  0  0  0  0  0  0  0  0
    7.6304   -1.2442    0.9341 N   0  0  0  1  0  0  0  0  0  0  0  0
    6.9891   -2.1480    1.8773 C   0  0  0  1  0  0  0  0  0  0  0  0
    5.5449   -1.7420    2.1218 C   0  0  0  1  0  0  0  0  0  0  0  0
    4.8055   -2.5689    3.1393 C   0  0  0  1  0  0  0  0  0  0  0  0
    4.0269   -3.6623    2.8989 C   0  0  0  1  0  0  0  0  0  0  0  0
    3.5059   -4.1405    4.0739 N   0  0  0  1  0  0  0  0  0  0  0  0
    3.9589   -3.3701    5.1097 C   0  0  0  1  0  0  0  0  0  0  0  0
    3.7219   -3.4623    6.4840 C   0  0  0  1  0  0  0  0  0  0  0  0
    4.3140   -2.5193    7.2958 C   0  0  0  1  0  0  0  0  0  0  0  0
    5.1134   -1.5087    6.7710 C   0  0  0  1  0  0  0  0  0  0  0  0
    5.3526   -1.4202    5.4174 C   0  0  0  1  0  0  0  0  0  0  0  0
    4.7766   -2.3667    4.5630 C   0  0  0  1  0  0  0  0  0  0  0  0
    6.8520   -3.8491    0.1810 O   0  0  0  1  0  0  0  0  0  0  0  0
    5.6627   -0.6012    7.6008 F   0  0  0  1  0  0  0  0  0  0  0  0
    8.9246   -1.4366    0.6575 C   0  0  0  1  0  0  0  0  0  0  0  0
    9.6356   -2.2656    1.2023 O   0  0  0  1  0  0  0  0  0  0  0  0
    9.4608   -0.5154   -0.4210 C   0  0  0  1  0  0  0  0  0  0  0  0
    7.3675   -4.5108    2.2750 N   0  0  0  1  0  0  0  0  0  0  0  0
    7.3756   -5.9325    1.9643 C   0  0  0  1  0  0  0  0  0  0  0  0
    7.1281   -0.5153    0.5135 H   0  0  0  1  0  0  0  0  0  0  0  0
    7.5085   -2.1025    2.8117 H   0  0  0  1  0  0  0  0  0  0  0  0
    5.0197   -1.8150    1.1925 H   0  0  0  1  0  0  0  0  0  0  0  0
    5.5399   -0.7255    2.4559 H   0  0  0  1  0  0  0  0  0  0  0  0
    3.8531   -4.0742    1.9598 H   0  0  0  1  0  0  0  0  0  0  0  0
    2.9055   -4.9104    4.1581 H   0  0  0  1  0  0  0  0  0  0  0  0
    3.1215   -4.2141    6.8790 H   0  0  0  1  0  0  0  0  0  0  0  0
    4.1599   -2.5640    8.3234 H   0  0  0  1  0  0  0  0  0  0  0  0
    5.9526   -0.6611    5.0361 H   0  0  0  1  0  0  0  0  0  0  0  0
    8.8916   -0.6459   -1.3176 H   0  0  0  1  0  0  0  0  0  0  0  0
   10.4869   -0.7506   -0.6128 H   0  0  0  1  0  0  0  0  0  0  0  0
    9.3823    0.5002   -0.0937 H   0  0  0  1  0  0  0  0  0  0  0  0
    7.5933   -4.2242    3.1846 H   0  0  0  1  0  0  0  0  0  0  0  0
    6.6258   -6.1420    1.2302 H   0  0  0  1  0  0  0  0  0  0  0  0
    7.1710   -6.4927    2.8527 H   0  0  0  1  0  0  0  0  0  0  0  0
    8.3360   -6.2082    1.5815 H   0  0  0  1  0  0  0  0  0  0  0  0
  1  3  1  0  0  0  0
  1 14  2  0  0  0  0
  1 19  1  0  0  0  0
  2  3  1  0  0  0  0
  2 16  1  0  0  0  0
  2 21  1  0  0  0  0
  3  4  1  0  0  0  0
  3 22  1  0  0  0  0
  4  5  1  0  0  0  0
  4 23  1  0  0  0  0
  4 24  1  0  0  0  0
  5  6  4  0  0  0  0
  5 13  4  0  0  0  0
  6  7  4  0  0  0  0
  6 25  1  0  0  0  0
  7  8  4  0  0  0  0
  7 26  1  0  0  0  0
  8  9  4  0  0  0  0
  8 13  4  0  0  0  0
  9 10  4  0  0  0  0
  9 27  1  0  0  0  0
 10 11  4  0  0  0  0
 10 28  1  0  0  0  0
 11 12  4  0  0  0  0
 11 15  1  0  0  0  0
 12 13  4  0  0  0  0
 12 29  1  0  0  0  0
 16 17  2  0  0  0  0
 16 18  1  0  0  0  0
 18 30  1  0  0  0  0
 18 31  1  0  0  0  0
 18 32  1  0  0  0  0
 19 20  1  0  0  0  0
 19 33  1  0  0  0  0
 20 34  1  0  0  0  0
 20 35  1  0  0  0  0
 20 36  1  0  0  0  0
M  END
> <ConfClashScore>
0 

> <ConfOneFourInteractionScore>
-0.981931 

> <ConfScore>
0.582791 

> <ConfScorePBest>
0.00840348 

> <ConfTolerance>
0.356527 

$$$$
5F-TRP.3D.capped.mmff94s.pdb
 OpenBabel09172212003D

 36 37  0  0  0  0  0  0  0  0999 V2000
    5.5060    0.0437    0.4045 C   0  0  0  1  0  0  0  0  0  0  0  0
    4.1278   -1.9686    0.1524 N   0  0  0  1  0  0  0  0  0  0  0  0
    4.6706   -1.0188    1.1104 C   0  0  0  1  0  0  0  0  0  0  0  0
    5.5449   -1.7420    2.1218 C   0  0  0  1  0  0  0  0  0  0  0  0
    4.8055   -2.5689    3.1393 C   0  0  0  1  0  0  0  0  0  0  0  0
    4.0269   -3.6623    2.8989 C   0  0  0  1  0  0  0  0  0  0  0  0
    3.5059   -4.1405    4.0739 N   0  0  0  1  0  0  0  0  0  0  0  0
    3.9589   -3.3701    5.1097 C   0  0  0  1  0  0  0  0  0  0  0  0
    3.7219   -3.4623    6.4840 C   0  0  0  1  0  0  0  0  0  0  0  0
    4.3140   -2.5193    7.2958 C   0  0  0  1  0  0  0  0  0  0  0  0
    5.1134   -1.5087    6.7710 C   0  0  0  1  0  0  0  0  0  0  0  0
    5.3526   -1.4202    5.4174 C   0  0  0  1  0  0  0  0  0  0  0  0
    4.7766   -2.3667    4.5630 C   0  0  0  1  0  0  0  0  0  0  0  0
    5.9942   -0.1364   -0.6962 O   0  0  0  1  0  0  0  0  0  0  0  0
    5.6627   -0.6012    7.6008 F   0  0  0  1  0  0  0  0  0  0  0  0
    3.2178   -1.6194   -0.7614 C   0  0  0  1  0  0  0  0  0  0  0  0
    2.8287   -0.4622   -0.9110 O   0  0  0  1  0  0  0  0  0  0  0  0
    2.6804   -2.7475   -1.6204 C   0  0  0  1  0  0  0  0  0  0  0  0
    5.7122    1.2136    1.0099 N   0  0  0  1  0  0  0  0  0  0  0  0
    6.5213    2.2890    0.4561 C   0  0  0  1  0  0  0  0  0  0  0  0
    4.4404   -2.8970    0.1779 H   0  0  0  1  0  0  0  0  0  0  0  0
    3.8708   -0.5365    1.6325 H   0  0  0  1  0  0  0  0  0  0  0  0
    6.1184   -1.0073    2.6473 H   0  0  0  1  0  0  0  0  0  0  0  0
    6.2035   -2.3916    1.5841 H   0  0  0  1  0  0  0  0  0  0  0  0
    3.8531   -4.0742    1.9598 H   0  0  0  1  0  0  0  0  0  0  0  0
    2.9055   -4.9104    4.1581 H   0  0  0  1  0  0  0  0  0  0  0  0
    3.1215   -4.2141    6.8790 H   0  0  0  1  0  0  0  0  0  0  0  0
    4.1599   -2.5640    8.3234 H   0  0  0  1  0  0  0  0  0  0  0  0
    5.9526   -0.6611    5.0361 H   0  0  0  1  0  0  0  0  0  0  0  0
    3.4941   -3.2488   -2.1016 H   0  0  0  1  0  0  0  0  0  0  0  0
    2.0199   -2.3478   -2.3612 H   0  0  0  1  0  0  0  0  0  0  0  0
    2.1481   -3.4419   -1.0046 H   0  0  0  1  0  0  0  0  0  0  0  0
    5.2922    1.3586    1.8833 H   0  0  0  1  0  0  0  0  0  0  0  0
    7.5214    2.2118    0.8287 H   0  0  0  1  0  0  0  0  0  0  0  0
    6.1057    3.2321    0.7436 H   0  0  0  1  0  0  0  0  0  0  0  0
    6.5319    2.2138   -0.6112 H   0  0  0  1  0  0  0  0  0  0  0  0
  1  3  1  0  0  0  0
  1 14  2  0  0  0  0
  1 19  1  0  0  0  0
  2  3  1  0  0  0  0
  2 16  1  0  0  0  0
  2 21  1  0  0  0  0
  3  4  1  0  0  0  0
  3 22  1  0  0  0  0
  4  5  1  0  0  0  0
  4 23  1  0  0  0  0
  4 24  1  0  0  0  0
  5  6  4  0  0  0  0
  5 13  4  0  0  0  0
  6  7  4  0  0  0  0
  6 25  1  0  0  0  0
  7  8  4  0  0  0  0
  7 26  1  0  0  0  0
  8  9  4  0  0  0  0
  8 13  4  0  0  0  0
  9 10  4  0  0  0  0
  9 27  1  0  0  0  0
 10 11  4  0  0  0  0
 10 28  1  0  0  0  0
 11 12  4  0  0  0  0
 11 15  1  0  0  0  0
 12 13  4  0  0  0  0
 12 29  1  0  0  0  0
 16 17  2  0  0  0  0
 16 18  1  0  0  0  0
 18 30  1  0  0  0  0
 18 31  1  0  0  0  0
 18 32  1  0  0  0  0
 19 20  1  0  0  0  0
 19 33  1  0  0  0  0
 20 34  1  0  0  0  0
 20 35  1  0  0  0  0
 20 36  1  0  0  0  0
M  END
> <ConfClashScore>
0 

> <ConfOneFourInteractionScore>
-0.981931 

> <ConfScore>
0.595729 

> <ConfScorePBest>
0.00830048 

> <ConfTolerance>
0.842525 

$$$$
5F-TRP.3D.capped.mmff94s.pdb
 OpenBabel09172212003D

 36 37  0  0  0  0  0  0  0  0999 V2000
    3.8550   -1.3849    0.3041 C   0  0  0  1  0  0  0  0  0  0  0  0
    4.0033    0.1413    2.2674 N   0  0  0  1  0  0  0  0  0  0  0  0
    4.7522   -0.7169    1.3454 C   0  0  0  1  0  0  0  0  0  0  0  0
    5.5449   -1.7420    2.1218 C   0  0  0  1  0  0  0  0  0  0  0  0
    4.8055   -2.5689    3.1393 C   0  0  0  1  0  0  0  0  0  0  0  0
    4.0269   -3.6623    2.8989 C   0  0  0  1  0  0  0  0  0  0  0  0
    3.5059   -4.1405    4.0739 N   0  0  0  1  0  0  0  0  0  0  0  0
    3.9589   -3.3701    5.1097 C   0  0  0  1  0  0  0  0  0  0  0  0
    3.7219   -3.4623    6.4840 C   0  0  0  1  0  0  0  0  0  0  0  0
    4.3140   -2.5193    7.2958 C   0  0  0  1  0  0  0  0  0  0  0  0
    5.1134   -1.5087    6.7710 C   0  0  0  1  0  0  0  0  0  0  0  0
    5.3526   -1.4202    5.4174 C   0  0  0  1  0  0  0  0  0  0  0  0
    4.7766   -2.3667    4.5630 C   0  0  0  1  0  0  0  0  0  0  0  0
    2.8041   -1.8719    0.6874 O   0  0  0  1  0  0  0  0  0  0  0  0
    5.6627   -0.6012    7.6008 F   0  0  0  1  0  0  0  0  0  0  0  0
    4.5247    1.1906    2.9050 C   0  0  0  1  0  0  0  0  0  0  0  0
    5.6696    1.5733    2.7286 O   0  0  0  1  0  0  0  0  0  0  0  0
    3.6006    1.8953    3.8790 C   0  0  0  1  0  0  0  0  0  0  0  0
    4.3047   -1.3793   -0.9601 N   0  0  0  1  0  0  0  0  0  0  0  0
    3.5384   -2.0321   -2.0111 C   0  0  0  1  0  0  0  0  0  0  0  0
    3.0593   -0.0691    2.4257 H   0  0  0  1  0  0  0  0  0  0  0  0
    5.4533   -0.1053    0.8170 H   0  0  0  1  0  0  0  0  0  0  0  0
    6.3238   -1.2205    2.6379 H   0  0  0  1  0  0  0  0  0  0  0  0
    5.9762   -2.4173    1.4127 H   0  0  0  1  0  0  0  0  0  0  0  0
    3.8531   -4.0742    1.9598 H   0  0  0  1  0  0  0  0  0  0  0  0
    2.9055   -4.9104    4.1581 H   0  0  0  1  0  0  0  0  0  0  0  0
    3.1215   -4.2141    6.8790 H   0  0  0  1  0  0  0  0  0  0  0  0
    4.1599   -2.5640    8.3234 H   0  0  0  1  0  0  0  0  0  0  0  0
    5.9526   -0.6611    5.0361 H   0  0  0  1  0  0  0  0  0  0  0  0
    2.7416    2.2604    3.3559 H   0  0  0  1  0  0  0  0  0  0  0  0
    4.1180    2.7155    4.3312 H   0  0  0  1  0  0  0  0  0  0  0  0
    3.2903    1.2071    4.6373 H   0  0  0  1  0  0  0  0  0  0  0  0
    5.1509   -0.9347   -1.1761 H   0  0  0  1  0  0  0  0  0  0  0  0
    2.8146   -1.3482   -2.4027 H   0  0  0  1  0  0  0  0  0  0  0  0
    3.0385   -2.8882   -1.6084 H   0  0  0  1  0  0  0  0  0  0  0  0
    4.1986   -2.3397   -2.7948 H   0  0  0  1  0  0  0  0  0  0  0  0
  1  3  1  0  0  0  0
  1 14  2  0  0  0  0
  1 19  1  0  0  0  0
  2  3  1  0  0  0  0
  2 16  1  0  0  0  0
  2 21  1  0  0  0  0
  3  4  1  0  0  0  0
  3 22  1  0  0  0  0
  4  5  1  0  0  0  0
  4 23  1  0  0  0  0
  4 24  1  0  0  0  0
  5  6  4  0  0  0  0
  5 13  4  0  0  0  0
  6  7  4  0  0  0  0
  6 25  1  0  0  0  0
  7  8  4  0  0  0  0
  7 26  1  0  0  0  0
  8  9  4  0  0  0  0
  8 13  4  0  0  0  0
  9 10  4  0  0  0  0
  9 27  1  0  0  0  0
 10 11  4  0  0  0  0
 10 28  1  0  0  0  0
 11 12  4  0  0  0  0
 11 15  1  0  0  0  0
 12 13  4  0  0  0  0
 12 29  1  0  0  0  0
 16 17  2  0  0  0  0
 16 18  1  0  0  0  0
 18 30  1  0  0  0  0
 18 31  1  0  0  0  0
 18 32  1  0  0  0  0
 19 20  1  0  0  0  0
 19 33  1  0  0  0  0
 20 34  1  0  0  0  0
 20 35  1  0  0  0  0
 20 36  1  0  0  0  0
M  END
> <ConfClashScore>
0 

> <ConfOneFourInteractionScore>
-0.980789 

> <ConfScore>
0.603729 

> <ConfScorePBest>
0.00819748 

> <ConfTolerance>
0.682832 

$$$$
5F-TRP.3D.capped.mmff94s.pdb
 OpenBabel09172212003D

 36 37  0  0  0  0  0  0  0  0999 V2000
    7.7318   -1.6011    3.2798 C   0  0  0  1  0  0  0  0  0  0  0  0
    7.1400    0.0125    1.5019 N   0  0  0  1  0  0  0  0  0  0  0  0
    6.6112   -0.8421    2.5861 C   0  0  0  1  0  0  0  0  0  0  0  0
    5.4834   -1.6811    2.0854 C   0  0  0  1  0  0  0  0  0  0  0  0
    4.8106   -2.5792    3.1392 C   0  0  0  1  0  0  0  0  0  0  0  0
    4.0274   -3.6880    2.8826 C   0  0  0  1  0  0  0  0  0  0  0  0
    3.5236   -4.1442    4.0703 N   0  0  0  1  0  0  0  0  0  0  0  0
    3.9679   -3.3602    5.1083 C   0  0  0  1  0  0  0  0  0  0  0  0
    3.7088   -3.4556    6.4823 C   0  0  0  1  0  0  0  0  0  0  0  0
    4.3036   -2.5068    7.3176 C   0  0  0  1  0  0  0  0  0  0  0  0
    5.1181   -1.5143    6.7882 C   0  0  0  1  0  0  0  0  0  0  0  0
    5.3721   -1.4258    5.4192 C   0  0  0  1  0  0  0  0  0  0  0  0
    4.7824   -2.3698    4.5559 C   0  0  0  1  0  0  0  0  0  0  0  0
    7.8055   -1.6903    4.4918 O   0  0  0  1  0  0  0  0  0  0  0  0
    5.6777   -0.6133    7.6183 F   0  0  0  1  0  0  0  0  0  0  0  0
    8.1445    0.8718    1.6960 C   0  0  0  1  0  0  0  0  0  0  0  0
    8.7678    0.9296    2.7551 O   0  0  0  1  0  0  0  0  0  0  0  0
    8.5710    1.7261    0.5019 C   0  0  0  1  0  0  0  0  0  0  0  0
    8.6716   -2.1932    2.5373 N   0  0  0  1  0  0  0  0  0  0  0  0
    9.6846   -3.0639    3.1149 C   0  0  0  1  0  0  0  0  0  0  0  0
    6.7398   -0.0536    0.6098 H   0  0  0  1  0  0  0  0  0  0  0  0
    6.1935   -0.1859    3.3208 H   0  0  0  1  0  0  0  0  0  0  0  0
    5.8608   -2.3112    1.3073 H   0  0  0  1  0  0  0  0  0  0  0  0
    4.7376   -1.0267    1.6849 H   0  0  0  1  0  0  0  0  0  0  0  0
    3.8508   -4.1049    1.9463 H   0  0  0  1  0  0  0  0  0  0  0  0
    2.9310   -4.9187    4.1670 H   0  0  0  1  0  0  0  0  0  0  0  0
    3.0971   -4.2043    6.8656 H   0  0  0  1  0  0  0  0  0  0  0  0
    4.1353   -2.5440    8.3433 H   0  0  0  1  0  0  0  0  0  0  0  0
    5.9863   -0.6757    5.0425 H   0  0  0  1  0  0  0  0  0  0  0  0
    9.0497    2.6165    0.8526 H   0  0  0  1  0  0  0  0  0  0  0  0
    7.7088    1.9884   -0.0748 H   0  0  0  1  0  0  0  0  0  0  0  0
    9.2532    1.1712   -0.1078 H   0  0  0  1  0  0  0  0  0  0  0  0
    8.6791   -2.0357    1.5701 H   0  0  0  1  0  0  0  0  0  0  0  0
   10.6171   -2.9084    2.6139 H   0  0  0  1  0  0  0  0  0  0  0  0
    9.3845   -4.0846    3.0006 H   0  0  0  1  0  0  0  0  0  0  0  0
    9.7969   -2.8390    4.1550 H   0  0  0  1  0  0  0  0  0  0  0  0
  1  3  1  0  0  0  0
  1 14  2  0  0  0  0
  1 19  1  0  0  0  0
  2  3  1  0  0  0  0
  2 16  1  0  0  0  0
  2 21  1  0  0  0  0
  3  4  1  0  0  0  0
  3 22  1  0  0  0  0
  4  5  1  0  0  0  0
  4 23  1  0  0  0  0
  4 24  1  0  0  0  0
  5  6  4  0  0  0  0
  5 13  4  0  0  0  0
  6  7  4  0  0  0  0
  6 25  1  0  0  0  0
  7  8  4  0  0  0  0
  7 26  1  0  0  0  0
  8  9  4  0  0  0  0
  8 13  4  0  0  0  0
  9 10  4  0  0  0  0
  9 27  1  0  0  0  0
 10 11  4  0  0  0  0
 10 28  1  0  0  0  0
 11 12  4  0  0  0  0
 11 15  1  0  0  0  0
 12 13  4  0  0  0  0
 12 29  1  0  0  0  0
 16 17  2  0  0  0  0
 16 18  1  0  0  0  0
 18 30  1  0  0  0  0
 18 31  1  0  0  0  0
 18 32  1  0  0  0  0
 19 20  1  0  0  0  0
 19 33  1  0  0  0  0
 20 34  1  0  0  0  0
 20 35  1  0  0  0  0
 20 36  1  0  0  0  0
M  END
> <ConfClashScore>
0 

> <ConfOneFourInteractionScore>
-0.949001 

> <ConfScore>
0.611828 

> <ConfScorePBest>
0.00809448 

> <ConfTolerance>
0.959324 

$$$$
5F-TRP.3D.capped.mmff94s.pdb
 OpenBabel09172212003D

 36 37  0  0  0  0  0  0  0  0999 V2000
    7.5026   -3.1782    2.5862 C   0  0  0  1  0  0  0  0  0  0  0  0
    6.0867   -3.5388    0.6087 N   0  0  0  1  0  0  0  0  0  0  0  0
    6.6700   -2.5270    1.4825 C   0  0  0  1  0  0  0  0  0  0  0  0
    5.5271   -1.7308    2.1196 C   0  0  0  1  0  0  0  0  0  0  0  0
    4.7956   -2.5669    3.1354 C   0  0  0  1  0  0  0  0  0  0  0  0
    4.0169   -3.6791    2.8793 C   0  0  0  1  0  0  0  0  0  0  0  0
    3.5215   -4.1415    4.0681 N   0  0  0  1  0  0  0  0  0  0  0  0
    3.9668   -3.3582    5.1063 C   0  0  0  1  0  0  0  0  0  0  0  0
    3.7152   -3.4592    6.4813 C   0  0  0  1  0  0  0  0  0  0  0  0
    4.3092   -2.5098    7.3165 C   0  0  0  1  0  0  0  0  0  0  0  0
    5.1157   -1.5114    6.7860 C   0  0  0  1  0  0  0  0  0  0  0  0
    5.3624   -1.4174    5.4160 C   0  0  0  1  0  0  0  0  0  0  0  0
    4.7733   -2.3619    4.5528 C   0  0  0  1  0  0  0  0  0  0  0  0
    8.3791   -2.5507    3.1792 O   0  0  0  1  0  0  0  0  0  0  0  0
    5.6747   -0.6100    7.6160 F   0  0  0  1  0  0  0  0  0  0  0  0
    6.7738   -4.2917   -0.2550 C   0  0  0  1  0  0  0  0  0  0  0  0
    7.9843   -4.2311   -0.3945 O   0  0  0  1  0  0  0  0  0  0  0  0
    5.9454   -5.3266   -1.0130 C   0  0  0  1  0  0  0  0  0  0  0  0
    7.2125   -4.4609    2.8558 N   0  0  0  1  0  0  0  0  0  0  0  0
    7.9738   -5.1864    3.8618 C   0  0  0  1  0  0  0  0  0  0  0  0
    5.1177   -3.6767    0.6589 H   0  0  0  1  0  0  0  0  0  0  0  0
    7.2901   -1.8629    0.9174 H   0  0  0  1  0  0  0  0  0  0  0  0
    4.8420   -1.4280    1.3555 H   0  0  0  1  0  0  0  0  0  0  0  0
    5.9294   -0.8647    2.6023 H   0  0  0  1  0  0  0  0  0  0  0  0
    3.8379   -4.0941    1.9426 H   0  0  0  1  0  0  0  0  0  0  0  0
    2.9335   -4.9194    4.1654 H   0  0  0  1  0  0  0  0  0  0  0  0
    3.1093   -4.2123    6.8653 H   0  0  0  1  0  0  0  0  0  0  0  0
    4.1462   -2.5510    8.3428 H   0  0  0  1  0  0  0  0  0  0  0  0
    5.9707   -0.6630    5.0386 H   0  0  0  1  0  0  0  0  0  0  0  0
    5.3476   -4.8343   -1.7514 H   0  0  0  1  0  0  0  0  0  0  0  0
    5.3089   -5.8454   -0.3270 H   0  0  0  1  0  0  0  0  0  0  0  0
    6.5993   -6.0253   -1.4917 H   0  0  0  1  0  0  0  0  0  0  0  0
    6.4866   -4.9097    2.3742 H   0  0  0  1  0  0  0  0  0  0  0  0
    8.7462   -4.5552    4.2491 H   0  0  0  1  0  0  0  0  0  0  0  0
    8.4127   -6.0556    3.4184 H   0  0  0  1  0  0  0  0  0  0  0  0
    7.3223   -5.4816    4.6575 H   0  0  0  1  0  0  0  0  0  0  0  0
  1  3  1  0  0  0  0
  1 14  2  0  0  0  0
  1 19  1  0  0  0  0
  2  3  1  0  0  0  0
  2 16  1  0  0  0  0
  2 21  1  0  0  0  0
  3  4  1  0  0  0  0
  3 22  1  0  0  0  0
  4  5  1  0  0  0  0
  4 23  1  0  0  0  0
  4 24  1  0  0  0  0
  5  6  4  0  0  0  0
  5 13  4  0  0  0  0
  6  7  4  0  0  0  0
  6 25  1  0  0  0  0
  7  8  4  0  0  0  0
  7 26  1  0  0  0  0
  8  9  4  0  0  0  0
  8 13  4  0  0  0  0
  9 10  4  0  0  0  0
  9 27  1  0  0  0  0
 10 11  4  0  0  0  0
 10 28  1  0  0  0  0
 11 12  4  0  0  0  0
 11 15  1  0  0  0  0
 12 13  4  0  0  0  0
 12 29  1  0  0  0  0
 16 17  2  0  0  0  0
 16 18  1  0  0  0  0
 18 30  1  0  0  0  0
 18 31  1  0  0  0  0
 18 32  1  0  0  0  0
 19 20  1  0  0  0  0
 19 33  1  0  0  0  0
 20 34  1  0  0  0  0
 20 35  1  0  0  0  0
 20 36  1  0  0  0  0
M  END
> <ConfClashScore>
0 

> <ConfOneFourInteractionScore>
-0.957074 

> <ConfScore>
0.61448 

> <ConfScorePBest>
0.00799148 

> <ConfTolerance>
0.652804 

$$$$
5F-TRP.3D.capped.mmff94s.pdb
 OpenBabel09172212003D

 36 37  0  0  0  0  0  0  0  0999 V2000
    7.7097   -1.7367    3.4226 C   0  0  0  1  0  0  0  0  0  0  0  0
    7.2856   -3.4435    1.6803 N   0  0  0  1  0  0  0  0  0  0  0  0
    7.0188   -2.0771    2.1042 C   0  0  0  1  0  0  0  0  0  0  0  0
    5.5271   -1.7308    2.1196 C   0  0  0  1  0  0  0  0  0  0  0  0
    4.7956   -2.5669    3.1354 C   0  0  0  1  0  0  0  0  0  0  0  0
    4.0169   -3.6791    2.8793 C   0  0  0  1  0  0  0  0  0  0  0  0
    3.5215   -4.1415    4.0681 N   0  0  0  1  0  0  0  0  0  0  0  0
    3.9668   -3.3582    5.1063 C   0  0  0  1  0  0  0  0  0  0  0  0
    3.7152   -3.4592    6.4813 C   0  0  0  1  0  0  0  0  0  0  0  0
    4.3092   -2.5098    7.3165 C   0  0  0  1  0  0  0  0  0  0  0  0
    5.1157   -1.5114    6.7860 C   0  0  0  1  0  0  0  0  0  0  0  0
    5.3624   -1.4174    5.4160 C   0  0  0  1  0  0  0  0  0  0  0  0
    4.7733   -2.3619    4.5528 C   0  0  0  1  0  0  0  0  0  0  0  0
    7.8620   -2.5914    4.2943 O   0  0  0  1  0  0  0  0  0  0  0  0
    5.6747   -0.6100    7.6160 F   0  0  0  1  0  0  0  0  0  0  0  0
    8.5370   -3.9124    1.5089 C   0  0  0  1  0  0  0  0  0  0  0  0
    9.5534   -3.2669    1.7054 O   0  0  0  1  0  0  0  0  0  0  0  0
    8.5891   -5.3592    1.0351 C   0  0  0  1  0  0  0  0  0  0  0  0
    8.1447   -0.4793    3.6009 N   0  0  0  1  0  0  0  0  0  0  0  0
    8.7703    0.0216    4.8157 C   0  0  0  1  0  0  0  0  0  0  0  0
    6.5288   -4.0433    1.5138 H   0  0  0  1  0  0  0  0  0  0  0  0
    7.4593   -1.4362    1.3692 H   0  0  0  1  0  0  0  0  0  0  0  0
    5.1140   -1.9157    1.1501 H   0  0  0  1  0  0  0  0  0  0  0  0
    5.4096   -0.6963    2.3666 H   0  0  0  1  0  0  0  0  0  0  0  0
    3.8379   -4.0941    1.9426 H   0  0  0  1  0  0  0  0  0  0  0  0
    2.9335   -4.9194    4.1654 H   0  0  0  1  0  0  0  0  0  0  0  0
    3.1093   -4.2123    6.8653 H   0  0  0  1  0  0  0  0  0  0  0  0
    4.1462   -2.5510    8.3428 H   0  0  0  1  0  0  0  0  0  0  0  0
    5.9707   -0.6630    5.0386 H   0  0  0  1  0  0  0  0  0  0  0  0
    8.2208   -5.4201    0.0323 H   0  0  0  1  0  0  0  0  0  0  0  0
    7.9828   -5.9658    1.6749 H   0  0  0  1  0  0  0  0  0  0  0  0
    9.6002   -5.7080    1.0653 H   0  0  0  1  0  0  0  0  0  0  0  0
    8.0326    0.1487    2.8570 H   0  0  0  1  0  0  0  0  0  0  0  0
    9.3302   -0.7638    5.2790 H   0  0  0  1  0  0  0  0  0  0  0  0
    8.0142    0.3659    5.4900 H   0  0  0  1  0  0  0  0  0  0  0  0
    9.4263    0.8307    4.5713 H   0  0  0  1  0  0  0  0  0  0  0  0
  1  3  1  0  0  0  0
  1 14  2  0  0  0  0
  1 19  1  0  0  0  0
  2  3  1  0  0  0  0
  2 16  1  0  0  0  0
  2 21  1  0  0  0  0
  3  4  1  0  0  0  0
  3 22  1  0  0  0  0
  4  5  1  0  0  0  0
  4 23  1  0  0  0  0
  4 24  1  0  0  0  0
  5  6  4  0  0  0  0
  5 13  4  0  0  0  0
  6  7  4  0  0  0  0
  6 25  1  0  0  0  0
  7  8  4  0  0  0  0
  7 26  1  0  0  0  0
  8  9  4  0  0  0  0
  8 13  4  0  0  0  0
  9 10  4  0  0  0  0
  9 27  1  0  0  0  0
 10 11  4  0  0  0  0
 10 28  1  0  0  0  0
 11 12  4  0  0  0  0
 11 15  1  0  0  0  0
 12 13  4  0  0  0  0
 12 29  1  0  0  0  0
 16 17  2  0  0  0  0
 16 18  1  0  0  0  0
 18 30  1  0  0  0  0
 18 31  1  0  0  0  0
 18 32  1  0  0  0  0
 19 20  1  0  0  0  0
 19 33  1  0  0  0  0
 20 34  1  0  0  0  0
 20 35  1  0  0  0  0
 20 36  1  0  0  0  0
M  END
> <ConfClashScore>
0 

> <ConfOneFourInteractionScore>
-0.976093 

> <ConfScore>
0.621381 

> <ConfScorePBest>
0.00788848 

> <ConfTolerance>
0.390672 

$$$$
5F-TRP.3D.capped.mmff94s.pdb
 OpenBabel09172212003D

 36 37  0  0  0  0  0  0  0  0999 V2000
    4.8826    0.5721    2.9943 C   0  0  0  1  0  0  0  0  0  0  0  0
    5.4064    0.2495    0.6578 N   0  0  0  1  0  0  0  0  0  0  0  0
    4.8334   -0.3968    1.8290 C   0  0  0  1  0  0  0  0  0  0  0  0
    5.5271   -1.7308    2.1196 C   0  0  0  1  0  0  0  0  0  0  0  0
    4.7956   -2.5669    3.1354 C   0  0  0  1  0  0  0  0  0  0  0  0
    4.0169   -3.6791    2.8793 C   0  0  0  1  0  0  0  0  0  0  0  0
    3.5215   -4.1415    4.0681 N   0  0  0  1  0  0  0  0  0  0  0  0
    3.9668   -3.3582    5.1063 C   0  0  0  1  0  0  0  0  0  0  0  0
    3.7152   -3.4592    6.4813 C   0  0  0  1  0  0  0  0  0  0  0  0
    4.3092   -2.5098    7.3165 C   0  0  0  1  0  0  0  0  0  0  0  0
    5.1157   -1.5114    6.7860 C   0  0  0  1  0  0  0  0  0  0  0  0
    5.3624   -1.4174    5.4160 C   0  0  0  1  0  0  0  0  0  0  0  0
    4.7733   -2.3619    4.5528 C   0  0  0  1  0  0  0  0  0  0  0  0
    5.7329    1.4595    3.0513 O   0  0  0  1  0  0  0  0  0  0  0  0
    5.6747   -0.6100    7.6160 F   0  0  0  1  0  0  0  0  0  0  0  0
    5.0603    1.5156    0.3455 C   0  0  0  1  0  0  0  0  0  0  0  0
    4.1513    2.1208    0.9122 O   0  0  0  1  0  0  0  0  0  0  0  0
    5.8645    2.1629   -0.7592 C   0  0  0  1  0  0  0  0  0  0  0  0
    3.9477    0.3937    3.9410 N   0  0  0  1  0  0  0  0  0  0  0  0
    3.9441    1.1525    5.1828 C   0  0  0  1  0  0  0  0  0  0  0  0
    6.0451   -0.2358    0.0949 H   0  0  0  1  0  0  0  0  0  0  0  0
    3.8041   -0.6083    1.6274 H   0  0  0  1  0  0  0  0  0  0  0  0
    6.5110   -1.5297    2.4890 H   0  0  0  1  0  0  0  0  0  0  0  0
    5.5947   -2.2854    1.2071 H   0  0  0  1  0  0  0  0  0  0  0  0
    3.8379   -4.0941    1.9426 H   0  0  0  1  0  0  0  0  0  0  0  0
    2.9335   -4.9194    4.1654 H   0  0  0  1  0  0  0  0  0  0  0  0
    3.1093   -4.2123    6.8653 H   0  0  0  1  0  0  0  0  0  0  0  0
    4.1462   -2.5510    8.3428 H   0  0  0  1  0  0  0  0  0  0  0  0
    5.9707   -0.6630    5.0386 H   0  0  0  1  0  0  0  0  0  0  0  0
    5.5710    3.1867   -0.8618 H   0  0  0  1  0  0  0  0  0  0  0  0
    5.6858    1.6469   -1.6794 H   0  0  0  1  0  0  0  0  0  0  0  0
    6.9058    2.1131   -0.5181 H   0  0  0  1  0  0  0  0  0  0  0  0
    3.2432   -0.2707    3.7907 H   0  0  0  1  0  0  0  0  0  0  0  0
    4.8577    1.7029    5.2677 H   0  0  0  1  0  0  0  0  0  0  0  0
    3.8546    0.4806    6.0108 H   0  0  0  1  0  0  0  0  0  0  0  0
    3.1174    1.8317    5.1831 H   0  0  0  1  0  0  0  0  0  0  0  0
  1  3  1  0  0  0  0
  1 14  2  0  0  0  0
  1 19  1  0  0  0  0
  2  3  1  0  0  0  0
  2 16  1  0  0  0  0
  2 21  1  0  0  0  0
  3  4  1  0  0  0  0
  3 22  1  0  0  0  0
  4  5  1  0  0  0  0
  4 23  1  0  0  0  0
  4 24  1  0  0  0  0
  5  6  4  0  0  0  0
  5 13  4  0  0  0  0
  6  7  4  0  0  0  0
  6 25  1  0  0  0  0
  7  8  4  0  0  0  0
  7 26  1  0  0  0  0
  8  9  4  0  0  0  0
  8 13  4  0  0  0  0
  9 10  4  0  0  0  0
  9 27  1  0  0  0  0
 10 11  4  0  0  0  0
 10 28  1  0  0  0  0
 11 12  4  0  0  0  0
 11 15  1  0  0  0  0
 12 13  4  0  0  0  0
 12 29  1  0  0  0  0
 16 17  2  0  0  0  0
 16 18  1  0  0  0  0
 18 30  1  0  0  0  0
 18 31  1  0  0  0  0
 18 32  1  0  0  0  0
 19 20  1  0  0  0  0
 19 33  1  0  0  0  0
 20 34  1  0  0  0  0
 20 35  1  0  0  0  0
 20 36  1  0  0  0  0
M  END
> <ConfClashScore>
0 

> <ConfOneFourInteractionScore>
-0.985807 

> <ConfScore>
0.622219 

> <ConfScorePBest>
0.00778548 

> <ConfTolerance>
0.977502 

$$$$
5F-TRP.3D.capped.mmff94s.pdb
 OpenBabel09172212003D

 36 37  0  0  0  0  0  0  0  0999 V2000
    3.3098   -0.5544    2.1750 C   0  0  0  1  0  0  0  0  0  0  0  0
    5.2537    0.6253    1.3487 N   0  0  0  1  0  0  0  0  0  0  0  0
    4.6326   -0.6872    1.4458 C   0  0  0  1  0  0  0  0  0  0  0  0
    5.5271   -1.7308    2.1196 C   0  0  0  1  0  0  0  0  0  0  0  0
    4.7956   -2.5669    3.1354 C   0  0  0  1  0  0  0  0  0  0  0  0
    4.0169   -3.6791    2.8793 C   0  0  0  1  0  0  0  0  0  0  0  0
    3.5215   -4.1415    4.0681 N   0  0  0  1  0  0  0  0  0  0  0  0
    3.9668   -3.3582    5.1063 C   0  0  0  1  0  0  0  0  0  0  0  0
    3.7152   -3.4592    6.4813 C   0  0  0  1  0  0  0  0  0  0  0  0
    4.3092   -2.5098    7.3165 C   0  0  0  1  0  0  0  0  0  0  0  0
    5.1157   -1.5114    6.7860 C   0  0  0  1  0  0  0  0  0  0  0  0
    5.3624   -1.4174    5.4160 C   0  0  0  1  0  0  0  0  0  0  0  0
    4.7733   -2.3619    4.5528 C   0  0  0  1  0  0  0  0  0  0  0  0
    2.2993   -1.1410    1.7897 O   0  0  0  1  0  0  0  0  0  0  0  0
    5.6747   -0.6100    7.6160 F   0  0  0  1  0  0  0  0  0  0  0  0
    4.5831    1.7032    0.9319 C   0  0  0  1  0  0  0  0  0  0  0  0
    3.4311    1.6510    0.5032 O   0  0  0  1  0  0  0  0  0  0  0  0
    5.3321    3.0188    1.0174 C   0  0  0  1  0  0  0  0  0  0  0  0
    3.3646    0.2472    3.2504 N   0  0  0  1  0  0  0  0  0  0  0  0
    2.1960    0.5284    4.0708 C   0  0  0  1  0  0  0  0  0  0  0  0
    6.1966    0.7220    1.5976 H   0  0  0  1  0  0  0  0  0  0  0  0
    4.4231   -1.0354    0.4559 H   0  0  0  1  0  0  0  0  0  0  0  0
    6.3311   -1.2239    2.6111 H   0  0  0  1  0  0  0  0  0  0  0  0
    5.9216   -2.3792    1.3654 H   0  0  0  1  0  0  0  0  0  0  0  0
    3.8379   -4.0941    1.9426 H   0  0  0  1  0  0  0  0  0  0  0  0
    2.9335   -4.9194    4.1654 H   0  0  0  1  0  0  0  0  0  0  0  0
    3.1093   -4.2123    6.8653 H   0  0  0  1  0  0  0  0  0  0  0  0
    4.1462   -2.5510    8.3428 H   0  0  0  1  0  0  0  0  0  0  0  0
    5.9707   -0.6630    5.0386 H   0  0  0  1  0  0  0  0  0  0  0  0
    5.5453    3.2425    2.0418 H   0  0  0  1  0  0  0  0  0  0  0  0
    4.7306    3.7991    0.6000 H   0  0  0  1  0  0  0  0  0  0  0  0
    6.2488    2.9432    0.4708 H   0  0  0  1  0  0  0  0  0  0  0  0
    4.2215    0.6572    3.4915 H   0  0  0  1  0  0  0  0  0  0  0  0
    1.3446    0.6782    3.4402 H   0  0  0  1  0  0  0  0  0  0  0  0
    2.3707    1.4114    4.6493 H   0  0  0  1  0  0  0  0  0  0  0  0
    2.0133   -0.2976    4.7260 H   0  0  0  1  0  0  0  0  0  0  0  0
  1  3  1  0  0  0  0
  1 14  2  0  0  0  0
  1 19  1  0  0  0  0
  2  3  1  0  0  0  0
  2 16  1  0  0  0  0
  2 21  1  0  0  0  0
  3  4  1  0  0  0  0
  3 22  1  0  0  0  0
  4  5  1  0  0  0  0
  4 23  1  0  0  0  0
  4 24  1  0  0  0  0
  5  6  4  0  0  0  0
  5 13  4  0  0  0  0
  6  7  4  0  0  0  0
  6 25  1  0  0  0  0
  7  8  4  0  0  0  0
  7 26  1  0  0  0  0
  8  9  4  0  0  0  0
  8 13  4  0  0  0  0
  9 10  4  0  0  0  0
  9 27  1  0  0  0  0
 10 11  4  0  0  0  0
 10 28  1  0  0  0  0
 11 12  4  0  0  0  0
 11 15  1  0  0  0  0
 12 13  4  0  0  0  0
 12 29  1  0  0  0  0
 16 17  2  0  0  0  0
 16 18  1  0  0  0  0
 18 30  1  0  0  0  0
 18 31  1  0  0  0  0
 18 32  1  0  0  0  0
 19 20  1  0  0  0  0
 19 33  1  0  0  0  0
 20 34  1  0  0  0  0
 20 35  1  0  0  0  0
 20 36  1  0  0  0  0
M  END
> <ConfClashScore>
0 

> <ConfOneFourInteractionScore>
-0.942345 

> <ConfScore>
0.632174 

> <ConfScorePBest>
0.00768248 

> <ConfTolerance>
1.15519 

$$$$
5F-TRP.3D.capped.mmff94s.pdb
 OpenBabel09172212003D

 36 37  0  0  0  0  0  0  0  0999 V2000
    7.7504   -2.7030    2.8252 C   0  0  0  1  0  0  0  0  0  0  0  0
    6.4923   -3.7128    0.9956 N   0  0  0  1  0  0  0  0  0  0  0  0
    6.8175   -2.4552    1.6516 C   0  0  0  1  0  0  0  0  0  0  0  0
    5.5491   -1.7373    2.1156 C   0  0  0  1  0  0  0  0  0  0  0  0
    4.8051   -2.5695    3.1397 C   0  0  0  1  0  0  0  0  0  0  0  0
    4.0264   -3.6629    2.8994 C   0  0  0  1  0  0  0  0  0  0  0  0
    3.5055   -4.1409    4.0745 N   0  0  0  1  0  0  0  0  0  0  0  0
    3.9586   -3.3704    5.1102 C   0  0  0  1  0  0  0  0  0  0  0  0
    3.7217   -3.4625    6.4846 C   0  0  0  1  0  0  0  0  0  0  0  0
    4.3138   -2.5194    7.2962 C   0  0  0  1  0  0  0  0  0  0  0  0
    5.1132   -1.5089    6.7712 C   0  0  0  1  0  0  0  0  0  0  0  0
    5.3524   -1.4205    5.4176 C   0  0  0  1  0  0  0  0  0  0  0  0
    4.7763   -2.3671    4.5634 C   0  0  0  1  0  0  0  0  0  0  0  0
    7.7288   -3.7658    3.4447 O   0  0  0  1  0  0  0  0  0  0  0  0
    5.6626   -0.6014    7.6009 F   0  0  0  1  0  0  0  0  0  0  0  0
    7.4223   -4.6260    0.7019 C   0  0  0  1  0  0  0  0  0  0  0  0
    8.6145   -4.4585    0.9556 O   0  0  0  1  0  0  0  0  0  0  0  0
    6.9356   -5.9551    0.1237 C   0  0  0  1  0  0  0  0  0  0  0  0
    8.5839   -1.6959    3.1305 N   0  0  0  1  0  0  0  0  0  0  0  0
    9.5302   -1.7770    4.2331 C   0  0  0  1  0  0  0  0  0  0  0  0
    5.5586   -3.8964    0.7611 H   0  0  0  1  0  0  0  0  0  0  0  0
    7.3214   -1.8192    0.9541 H   0  0  0  1  0  0  0  0  0  0  0  0
    4.9131   -1.5684    1.2719 H   0  0  0  1  0  0  0  0  0  0  0  0
    5.8176   -0.7989    2.5541 H   0  0  0  1  0  0  0  0  0  0  0  0
    3.8526   -4.0748    1.9604 H   0  0  0  1  0  0  0  0  0  0  0  0
    2.9051   -4.9108    4.1588 H   0  0  0  1  0  0  0  0  0  0  0  0
    3.1214   -4.2142    6.8796 H   0  0  0  1  0  0  0  0  0  0  0  0
    4.1599   -2.5640    8.3238 H   0  0  0  1  0  0  0  0  0  0  0  0
    5.9523   -0.6614    5.0362 H   0  0  0  1  0  0  0  0  0  0  0  0
    5.8726   -6.0213    0.2262 H   0  0  0  1  0  0  0  0  0  0  0  0
    7.3957   -6.7636    0.6525 H   0  0  0  1  0  0  0  0  0  0  0  0
    7.1980   -6.0106   -0.9121 H   0  0  0  1  0  0  0  0  0  0  0  0
    8.5541   -0.8776    2.5920 H   0  0  0  1  0  0  0  0  0  0  0  0
    9.0456   -2.1973    5.0895 H   0  0  0  1  0  0  0  0  0  0  0  0
    9.8859   -0.7962    4.4704 H   0  0  0  1  0  0  0  0  0  0  0  0
   10.3549   -2.3973    3.9501 H   0  0  0  1  0  0  0  0  0  0  0  0
  1  3  1  0  0  0  0
  1 14  2  0  0  0  0
  1 19  1  0  0  0  0
  2  3  1  0  0  0  0
  2 16  1  0  0  0  0
  2 21  1  0  0  0  0
  3  4  1  0  0  0  0
  3 22  1  0  0  0  0
  4  5  1  0  0  0  0
  4 23  1  0  0  0  0
  4 24  1  0  0  0  0
  5  6  4  0  0  0  0
  5 13  4  0  0  0  0
  6  7  4  0  0  0  0
  6 25  1  0  0  0  0
  7  8  4  0  0  0  0
  7 26  1  0  0  0  0
  8  9  4  0  0  0  0
  8 13  4  0  0  0  0
  9 10  4  0  0  0  0
  9 27  1  0  0  0  0
 10 11  4  0  0  0  0
 10 28  1  0  0  0  0
 11 12  4  0  0  0  0
 11 15  1  0  0  0  0
 12 13  4  0  0  0  0
 12 29  1  0  0  0  0
 16 17  2  0  0  0  0
 16 18  1  0  0  0  0
 18 30  1  0  0  0  0
 18 31  1  0  0  0  0
 18 32  1  0  0  0  0
 19 20  1  0  0  0  0
 19 33  1  0  0  0  0
 20 34  1  0  0  0  0
 20 35  1  0  0  0  0
 20 36  1  0  0  0  0
M  END
> <ConfClashScore>
0 

> <ConfOneFourInteractionScore>
-0.976093 

> <ConfScore>
0.634036 

> <ConfScorePBest>
0.00757948 

> <ConfTolerance>
0.564215 

$$$$
5F-TRP.3D.capped.mmff94s.pdb
 OpenBabel09172212003D

 36 37  0  0  0  0  0  0  0  0999 V2000
    7.6201   -1.5782    3.5385 C   0  0  0  1  0  0  0  0  0  0  0  0
    7.4986   -3.1318    1.6961 N   0  0  0  1  0  0  0  0  0  0  0  0
    7.0431   -1.8304    2.1639 C   0  0  0  1  0  0  0  0  0  0  0  0
    5.5271   -1.7308    2.1196 C   0  0  0  1  0  0  0  0  0  0  0  0
    4.7956   -2.5669    3.1354 C   0  0  0  1  0  0  0  0  0  0  0  0
    4.0169   -3.6791    2.8793 C   0  0  0  1  0  0  0  0  0  0  0  0
    3.5215   -4.1415    4.0681 N   0  0  0  1  0  0  0  0  0  0  0  0
    3.9668   -3.3582    5.1063 C   0  0  0  1  0  0  0  0  0  0  0  0
    3.7152   -3.4592    6.4813 C   0  0  0  1  0  0  0  0  0  0  0  0
    4.3092   -2.5098    7.3165 C   0  0  0  1  0  0  0  0  0  0  0  0
    5.1157   -1.5114    6.7860 C   0  0  0  1  0  0  0  0  0  0  0  0
    5.3624   -1.4174    5.4160 C   0  0  0  1  0  0  0  0  0  0  0  0
    4.7733   -2.3619    4.5528 C   0  0  0  1  0  0  0  0  0  0  0  0
    8.0405   -0.4677    3.8605 O   0  0  0  1  0  0  0  0  0  0  0  0
    5.6747   -0.6100    7.6160 F   0  0  0  1  0  0  0  0  0  0  0  0
    8.8553   -3.4063    1.6135 C   0  0  0  1  0  0  0  0  0  0  0  0
    9.6425   -2.4813    1.6973 O   0  0  0  1  0  0  0  0  0  0  0  0
    9.3026   -4.8286    1.4246 C   0  0  0  1  0  0  0  0  0  0  0  0
    7.6391   -2.6280    4.3602 N   0  0  0  1  0  0  0  0  0  0  0  0
    8.1756   -2.5485    5.7107 C   0  0  0  1  0  0  0  0  0  0  0  0
    6.8450   -3.8153    1.4390 H   0  0  0  1  0  0  0  0  0  0  0  0
    7.4324   -1.0813    1.5065 H   0  0  0  1  0  0  0  0  0  0  0  0
    5.2045   -2.0368    1.1464 H   0  0  0  1  0  0  0  0  0  0  0  0
    5.2588   -0.7074    2.2795 H   0  0  0  1  0  0  0  0  0  0  0  0
    3.8379   -4.0941    1.9426 H   0  0  0  1  0  0  0  0  0  0  0  0
    2.9335   -4.9194    4.1654 H   0  0  0  1  0  0  0  0  0  0  0  0
    3.1093   -4.2123    6.8653 H   0  0  0  1  0  0  0  0  0  0  0  0
    4.1462   -2.5510    8.3428 H   0  0  0  1  0  0  0  0  0  0  0  0
    5.9707   -0.6630    5.0386 H   0  0  0  1  0  0  0  0  0  0  0  0
    9.8723   -4.9070    0.5223 H   0  0  0  1  0  0  0  0  0  0  0  0
    8.4457   -5.4663    1.3616 H   0  0  0  1  0  0  0  0  0  0  0  0
    9.9082   -5.1251    2.2554 H   0  0  0  1  0  0  0  0  0  0  0  0
    7.2794   -3.4829    4.0438 H   0  0  0  1  0  0  0  0  0  0  0  0
    8.0868   -1.5452    6.0718 H   0  0  0  1  0  0  0  0  0  0  0  0
    9.2067   -2.8342    5.7020 H   0  0  0  1  0  0  0  0  0  0  0  0
    7.6278   -3.2077    6.3512 H   0  0  0  1  0  0  0  0  0  0  0  0
  1  3  1  0  0  0  0
  1 14  2  0  0  0  0
  1 19  1  0  0  0  0
  2  3  1  0  0  0  0
  2 16  1  0  0  0  0
  2 21  1  0  0  0  0
  3  4  1  0  0  0  0
  3 22  1  0  0  0  0
  4  5  1  0  0  0  0
  4 23  1  0  0  0  0
  4 24  1  0  0  0  0
  5  6  4  0  0  0  0
  5 13  4  0  0  0  0
  6  7  4  0  0  0  0
  6 25  1  0  0  0  0
  7  8  4  0  0  0  0
  7 26  1  0  0  0  0
  8  9  4  0  0  0  0
  8 13  4  0  0  0  0
  9 10  4  0  0  0  0
  9 27  1  0  0  0  0
 10 11  4  0  0  0  0
 10 28  1  0  0  0  0
 11 12  4  0  0  0  0
 11 15  1  0  0  0  0
 12 13  4  0  0  0  0
 12 29  1  0  0  0  0
 16 17  2  0  0  0  0
 16 18  1  0  0  0  0
 18 30  1  0  0  0  0
 18 31  1  0  0  0  0
 18 32  1  0  0  0  0
 19 20  1  0  0  0  0
 19 33  1  0  0  0  0
 20 34  1  0  0  0  0
 20 35  1  0  0  0  0
 20 36  1  0  0  0  0
M  END
> <ConfClashScore>
0 

> <ConfOneFourInteractionScore>
-0.957074 

> <ConfScore>
0.634323 

> <ConfScorePBest>
0.00747648 

> <ConfTolerance>
0.978351 

$$$$
5F-TRP.3D.capped.mmff94s.pdb
 OpenBabel09172212003D

 36 37  0  0  0  0  0  0  0  0999 V2000
    6.6025   -3.4794    0.6455 C   0  0  0  1  0  0  0  0  0  0  0  0
    7.6093   -1.3250    0.8834 N   0  0  0  1  0  0  0  0  0  0  0  0
    6.8273   -2.3241    1.6021 C   0  0  0  1  0  0  0  0  0  0  0  0
    5.5271   -1.7308    2.1196 C   0  0  0  1  0  0  0  0  0  0  0  0
    4.7956   -2.5669    3.1354 C   0  0  0  1  0  0  0  0  0  0  0  0
    4.0169   -3.6791    2.8793 C   0  0  0  1  0  0  0  0  0  0  0  0
    3.5215   -4.1415    4.0681 N   0  0  0  1  0  0  0  0  0  0  0  0
    3.9668   -3.3582    5.1063 C   0  0  0  1  0  0  0  0  0  0  0  0
    3.7152   -3.4592    6.4813 C   0  0  0  1  0  0  0  0  0  0  0  0
    4.3092   -2.5098    7.3165 C   0  0  0  1  0  0  0  0  0  0  0  0
    5.1157   -1.5114    6.7860 C   0  0  0  1  0  0  0  0  0  0  0  0
    5.3624   -1.4174    5.4160 C   0  0  0  1  0  0  0  0  0  0  0  0
    4.7733   -2.3619    4.5528 C   0  0  0  1  0  0  0  0  0  0  0  0
    6.3191   -3.2843   -0.5355 O   0  0  0  1  0  0  0  0  0  0  0  0
    5.6747   -0.6100    7.6160 F   0  0  0  1  0  0  0  0  0  0  0  0
    8.7000   -1.5336    0.1205 C   0  0  0  1  0  0  0  0  0  0  0  0
    9.3021   -2.5925    0.0440 O   0  0  0  1  0  0  0  0  0  0  0  0
    9.1384   -0.3117   -0.6631 C   0  0  0  1  0  0  0  0  0  0  0  0
    6.7329   -4.7049    1.1718 N   0  0  0  1  0  0  0  0  0  0  0  0
    6.5076   -5.9125    0.3937 C   0  0  0  1  0  0  0  0  0  0  0  0
    7.3071   -0.3963    0.9645 H   0  0  0  1  0  0  0  0  0  0  0  0
    7.3905   -2.6798    2.4394 H   0  0  0  1  0  0  0  0  0  0  0  0
    4.8760   -1.5827    1.2835 H   0  0  0  1  0  0  0  0  0  0  0  0
    5.7514   -0.7862    2.5694 H   0  0  0  1  0  0  0  0  0  0  0  0
    3.8379   -4.0941    1.9426 H   0  0  0  1  0  0  0  0  0  0  0  0
    2.9335   -4.9194    4.1654 H   0  0  0  1  0  0  0  0  0  0  0  0
    3.1093   -4.2123    6.8653 H   0  0  0  1  0  0  0  0  0  0  0  0
    4.1462   -2.5510    8.3428 H   0  0  0  1  0  0  0  0  0  0  0  0
    5.9707   -0.6630    5.0386 H   0  0  0  1  0  0  0  0  0  0  0  0
    8.8314   -0.4124   -1.6831 H   0  0  0  1  0  0  0  0  0  0  0  0
   10.2038   -0.2232   -0.6187 H   0  0  0  1  0  0  0  0  0  0  0  0
    8.6894    0.5627   -0.2404 H   0  0  0  1  0  0  0  0  0  0  0  0
    6.9891   -4.7903    2.1139 H   0  0  0  1  0  0  0  0  0  0  0  0
    5.5325   -5.8776   -0.0456 H   0  0  0  1  0  0  0  0  0  0  0  0
    6.5800   -6.7673    1.0332 H   0  0  0  1  0  0  0  0  0  0  0  0
    7.2444   -5.9812   -0.3791 H   0  0  0  1  0  0  0  0  0  0  0  0
  1  3  1  0  0  0  0
  1 14  2  0  0  0  0
  1 19  1  0  0  0  0
  2  3  1  0  0  0  0
  2 16  1  0  0  0  0
  2 21  1  0  0  0  0
  3  4  1  0  0  0  0
  3 22  1  0  0  0  0
  4  5  1  0  0  0  0
  4 23  1  0  0  0  0
  4 24  1  0  0  0  0
  5  6  4  0  0  0  0
  5 13  4  0  0  0  0
  6  7  4  0  0  0  0
  6 25  1  0  0  0  0
  7  8  4  0  0  0  0
  7 26  1  0  0  0  0
  8  9  4  0  0  0  0
  8 13  4  0  0  0  0
  9 10  4  0  0  0  0
  9 27  1  0  0  0  0
 10 11  4  0  0  0  0
 10 28  1  0  0  0  0
 11 12  4  0  0  0  0
 11 15  1  0  0  0  0
 12 13  4  0  0  0  0
 12 29  1  0  0  0  0
 16 17  2  0  0  0  0
 16 18  1  0  0  0  0
 18 30  1  0  0  0  0
 18 31  1  0  0  0  0
 18 32  1  0  0  0  0
 19 20  1  0  0  0  0
 19 33  1  0  0  0  0
 20 34  1  0  0  0  0
 20 35  1  0  0  0  0
 20 36  1  0  0  0  0
M  END
> <ConfClashScore>
0 

> <ConfOneFourInteractionScore>
-0.978127 

> <ConfScore>
0.635782 

> <ConfScorePBest>
0.00737347 

> <ConfTolerance>
0.804924 

$$$$
5F-TRP.3D.capped.mmff94s.pdb
 OpenBabel09172212003D

 36 37  0  0  0  0  0  0  0  0999 V2000
    7.5282   -3.2525    1.8948 C   0  0  0  1  0  0  0  0  0  0  0  0
    7.6799   -0.9018    1.2521 N   0  0  0  1  0  0  0  0  0  0  0  0
    7.0639   -1.8322    2.1864 C   0  0  0  1  0  0  0  0  0  0  0  0
    5.5449   -1.7420    2.1218 C   0  0  0  1  0  0  0  0  0  0  0  0
    4.8055   -2.5689    3.1393 C   0  0  0  1  0  0  0  0  0  0  0  0
    4.0269   -3.6623    2.8989 C   0  0  0  1  0  0  0  0  0  0  0  0
    3.5059   -4.1405    4.0739 N   0  0  0  1  0  0  0  0  0  0  0  0
    3.9589   -3.3701    5.1097 C   0  0  0  1  0  0  0  0  0  0  0  0
    3.7219   -3.4623    6.4840 C   0  0  0  1  0  0  0  0  0  0  0  0
    4.3140   -2.5193    7.2958 C   0  0  0  1  0  0  0  0  0  0  0  0
    5.1134   -1.5087    6.7710 C   0  0  0  1  0  0  0  0  0  0  0  0
    5.3526   -1.4202    5.4174 C   0  0  0  1  0  0  0  0  0  0  0  0
    4.7766   -2.3667    4.5630 C   0  0  0  1  0  0  0  0  0  0  0  0
    7.3710   -3.7605    0.7854 O   0  0  0  1  0  0  0  0  0  0  0  0
    5.6627   -0.6012    7.6008 F   0  0  0  1  0  0  0  0  0  0  0  0
    8.2760    0.2198    1.7070 C   0  0  0  1  0  0  0  0  0  0  0  0
    8.3411    0.4612    2.9116 O   0  0  0  1  0  0  0  0  0  0  0  0
    8.8633    1.1742    0.6920 C   0  0  0  1  0  0  0  0  0  0  0  0
    8.1079   -3.8942    2.9132 N   0  0  0  1  0  0  0  0  0  0  0  0
    8.5691   -5.2742    2.9403 C   0  0  0  1  0  0  0  0  0  0  0  0
    7.6617   -1.0904    0.2906 H   0  0  0  1  0  0  0  0  0  0  0  0
    7.3696   -1.5802    3.1803 H   0  0  0  1  0  0  0  0  0  0  0  0
    5.2363   -2.0625    1.1487 H   0  0  0  1  0  0  0  0  0  0  0  0
    5.2687   -0.7182    2.2649 H   0  0  0  1  0  0  0  0  0  0  0  0
    3.8531   -4.0742    1.9598 H   0  0  0  1  0  0  0  0  0  0  0  0
    2.9055   -4.9104    4.1581 H   0  0  0  1  0  0  0  0  0  0  0  0
    3.1215   -4.2141    6.8790 H   0  0  0  1  0  0  0  0  0  0  0  0
    4.1599   -2.5640    8.3234 H   0  0  0  1  0  0  0  0  0  0  0  0
    5.9526   -0.6611    5.0361 H   0  0  0  1  0  0  0  0  0  0  0  0
    9.6360    0.6792    0.1416 H   0  0  0  1  0  0  0  0  0  0  0  0
    9.2737    2.0235    1.1972 H   0  0  0  1  0  0  0  0  0  0  0  0
    8.0960    1.4953    0.0190 H   0  0  0  1  0  0  0  0  0  0  0  0
    8.2372   -3.3769    3.7354 H   0  0  0  1  0  0  0  0  0  0  0  0
    9.3638   -5.3713    3.6502 H   0  0  0  1  0  0  0  0  0  0  0  0
    8.9229   -5.5509    1.9692 H   0  0  0  1  0  0  0  0  0  0  0  0
    7.7597   -5.9151    3.2216 H   0  0  0  1  0  0  0  0  0  0  0  0
  1  3  1  0  0  0  0
  1 14  2  0  0  0  0
  1 19  1  0  0  0  0
  2  3  1  0  0  0  0
  2 16  1  0  0  0  0
  2 21  1  0  0  0  0
  3  4  1  0  0  0  0
  3 22  1  0  0  0  0
  4  5  1  0  0  0  0
  4 23  1  0  0  0  0
  4 24  1  0  0  0  0
  5  6  4  0  0  0  0
  5 13  4  0  0  0  0
  6  7  4  0  0  0  0
  6 25  1  0  0  0  0
  7  8  4  0  0  0  0
  7 26  1  0  0  0  0
  8  9  4  0  0  0  0
  8 13  4  0  0  0  0
  9 10  4  0  0  0  0
  9 27  1  0  0  0  0
 10 11  4  0  0  0  0
 10 28  1  0  0  0  0
 11 12  4  0  0  0  0
 11 15  1  0  0  0  0
 12 13  4  0  0  0  0
 12 29  1  0  0  0  0
 16 17  2  0  0  0  0
 16 18  1  0  0  0  0
 18 30  1  0  0  0  0
 18 31  1  0  0  0  0
 18 32  1  0  0  0  0
 19 20  1  0  0  0  0
 19 33  1  0  0  0  0
 20 34  1  0  0  0  0
 20 35  1  0  0  0  0
 20 36  1  0  0  0  0
M  END
> <ConfClashScore>
0 

> <ConfOneFourInteractionScore>
-0.982823 

> <ConfScore>
0.636789 

> <ConfScorePBest>
0.00727047 

> <ConfTolerance>
0.782159 

$$$$
5F-TRP.3D.capped.mmff94s.pdb
 OpenBabel09172212003D

 36 37  0  0  0  0  0  0  0  0999 V2000
    7.1820   -1.5139    0.2363 C   0  0  0  1  0  0  0  0  0  0  0  0
    7.6811   -2.9749    2.1423 N   0  0  0  1  0  0  0  0  0  0  0  0
    6.6211   -2.4264    1.3096 C   0  0  0  1  0  0  0  0  0  0  0  0
    5.5464   -1.7403    2.1196 C   0  0  0  1  0  0  0  0  0  0  0  0
    4.8054   -2.5691    3.1395 C   0  0  0  1  0  0  0  0  0  0  0  0
    4.0267   -3.6625    2.8990 C   0  0  0  1  0  0  0  0  0  0  0  0
    3.5058   -4.1406    4.0741 N   0  0  0  1  0  0  0  0  0  0  0  0
    3.9588   -3.3702    5.1099 C   0  0  0  1  0  0  0  0  0  0  0  0
    3.7219   -3.4624    6.4842 C   0  0  0  1  0  0  0  0  0  0  0  0
    4.3139   -2.5194    7.2960 C   0  0  0  1  0  0  0  0  0  0  0  0
    5.1133   -1.5088    6.7710 C   0  0  0  1  0  0  0  0  0  0  0  0
    5.3525   -1.4203    5.4174 C   0  0  0  1  0  0  0  0  0  0  0  0
    4.7765   -2.3668    4.5632 C   0  0  0  1  0  0  0  0  0  0  0  0
    8.1314   -0.7660    0.4663 O   0  0  0  1  0  0  0  0  0  0  0  0
    5.6627   -0.6013    7.6008 F   0  0  0  1  0  0  0  0  0  0  0  0
    8.6354   -3.7538    1.5967 C   0  0  0  1  0  0  0  0  0  0  0  0
    8.7006   -4.0500    0.4044 O   0  0  0  1  0  0  0  0  0  0  0  0
    9.6585   -4.2552    2.5973 C   0  0  0  1  0  0  0  0  0  0  0  0
    6.5780   -1.5810   -0.9599 N   0  0  0  1  0  0  0  0  0  0  0  0
    6.9938   -0.8467   -2.1456 C   0  0  0  1  0  0  0  0  0  0  0  0
    7.7007   -2.7773    3.1020 H   0  0  0  1  0  0  0  0  0  0  0  0
    6.1502   -3.2445    0.8057 H   0  0  0  1  0  0  0  0  0  0  0  0
    4.8223   -1.3571    1.4314 H   0  0  0  1  0  0  0  0  0  0  0  0
    6.0081   -0.9283    2.6414 H   0  0  0  1  0  0  0  0  0  0  0  0
    3.8529   -4.0744    1.9600 H   0  0  0  1  0  0  0  0  0  0  0  0
    2.9053   -4.9105    4.1584 H   0  0  0  1  0  0  0  0  0  0  0  0
    3.1215   -4.2141    6.8792 H   0  0  0  1  0  0  0  0  0  0  0  0
    4.1599   -2.5640    8.3235 H   0  0  0  1  0  0  0  0  0  0  0  0
    5.9525   -0.6612    5.0361 H   0  0  0  1  0  0  0  0  0  0  0  0
    9.5977   -5.3212    2.6665 H   0  0  0  1  0  0  0  0  0  0  0  0
    9.4604   -3.8239    3.5562 H   0  0  0  1  0  0  0  0  0  0  0  0
   10.6395   -3.9744    2.2751 H   0  0  0  1  0  0  0  0  0  0  0  0
    5.7980   -2.1687   -1.0413 H   0  0  0  1  0  0  0  0  0  0  0  0
    6.1305   -0.4717   -2.6545 H   0  0  0  1  0  0  0  0  0  0  0  0
    7.5361   -1.4996   -2.7972 H   0  0  0  1  0  0  0  0  0  0  0  0
    7.6205   -0.0289   -1.8568 H   0  0  0  1  0  0  0  0  0  0  0  0
  1  3  1  0  0  0  0
  1 14  2  0  0  0  0
  1 19  1  0  0  0  0
  2  3  1  0  0  0  0
  2 16  1  0  0  0  0
  2 21  1  0  0  0  0
  3  4  1  0  0  0  0
  3 22  1  0  0  0  0
  4  5  1  0  0  0  0
  4 23  1  0  0  0  0
  4 24  1  0  0  0  0
  5  6  4  0  0  0  0
  5 13  4  0  0  0  0
  6  7  4  0  0  0  0
  6 25  1  0  0  0  0
  7  8  4  0  0  0  0
  7 26  1  0  0  0  0
  8  9  4  0  0  0  0
  8 13  4  0  0  0  0
  9 10  4  0  0  0  0
  9 27  1  0  0  0  0
 10 11  4  0  0  0  0
 10 28  1  0  0  0  0
 11 12  4  0  0  0  0
 11 15  1  0  0  0  0
 12 13  4  0  0  0  0
 12 29  1  0  0  0  0
 16 17  2  0  0  0  0
 16 18  1  0  0  0  0
 18 30  1  0  0  0  0
 18 31  1  0  0  0  0
 18 32  1  0  0  0  0
 19 20  1  0  0  0  0
 19 33  1  0  0  0  0
 20 34  1  0  0  0  0
 20 35  1  0  0  0  0
 20 36  1  0  0  0  0
M  END
> <ConfClashScore>
0 

> <ConfOneFourInteractionScore>
-0.981931 

> <ConfScore>
0.63768 

> <ConfScorePBest>
0.00716747 

> <ConfTolerance>
0.862494 

$$$$
5F-TRP.3D.capped.mmff94s.pdb
 OpenBabel09172212003D

 36 37  0  0  0  0  0  0  0  0999 V2000
    5.7778   -3.3067    0.1373 C   0  0  0  1  0  0  0  0  0  0  0  0
    3.7295   -2.0552    0.4787 N   0  0  0  1  0  0  0  0  0  0  0  0
    5.1724   -2.0107    0.6684 C   0  0  0  1  0  0  0  0  0  0  0  0
    5.5271   -1.7308    2.1196 C   0  0  0  1  0  0  0  0  0  0  0  0
    4.7956   -2.5669    3.1354 C   0  0  0  1  0  0  0  0  0  0  0  0
    4.0169   -3.6791    2.8793 C   0  0  0  1  0  0  0  0  0  0  0  0
    3.5215   -4.1415    4.0681 N   0  0  0  1  0  0  0  0  0  0  0  0
    3.9668   -3.3582    5.1063 C   0  0  0  1  0  0  0  0  0  0  0  0
    3.7152   -3.4592    6.4813 C   0  0  0  1  0  0  0  0  0  0  0  0
    4.3092   -2.5098    7.3165 C   0  0  0  1  0  0  0  0  0  0  0  0
    5.1157   -1.5114    6.7860 C   0  0  0  1  0  0  0  0  0  0  0  0
    5.3624   -1.4174    5.4160 C   0  0  0  1  0  0  0  0  0  0  0  0
    4.7733   -2.3619    4.5528 C   0  0  0  1  0  0  0  0  0  0  0  0
    6.9882   -3.3267   -0.0816 O   0  0  0  1  0  0  0  0  0  0  0  0
    5.6747   -0.6100    7.6160 F   0  0  0  1  0  0  0  0  0  0  0  0
    3.1727   -2.2326   -0.7228 C   0  0  0  1  0  0  0  0  0  0  0  0
    3.8284   -2.3158   -1.7579 O   0  0  0  1  0  0  0  0  0  0  0  0
    1.6595   -2.3274   -0.7400 C   0  0  0  1  0  0  0  0  0  0  0  0
    4.9313   -4.3237   -0.0476 N   0  0  0  1  0  0  0  0  0  0  0  0
    5.3382   -5.5680   -0.6834 C   0  0  0  1  0  0  0  0  0  0  0  0
    3.1464   -1.9514    1.2595 H   0  0  0  1  0  0  0  0  0  0  0  0
    5.5655   -1.2072    0.0812 H   0  0  0  1  0  0  0  0  0  0  0  0
    5.3096   -0.7025    2.3202 H   0  0  0  1  0  0  0  0  0  0  0  0
    6.5757   -1.9046    2.2426 H   0  0  0  1  0  0  0  0  0  0  0  0
    3.8379   -4.0941    1.9426 H   0  0  0  1  0  0  0  0  0  0  0  0
    2.9335   -4.9194    4.1654 H   0  0  0  1  0  0  0  0  0  0  0  0
    3.1093   -4.2123    6.8653 H   0  0  0  1  0  0  0  0  0  0  0  0
    4.1462   -2.5510    8.3428 H   0  0  0  1  0  0  0  0  0  0  0  0
    5.9707   -0.6630    5.0386 H   0  0  0  1  0  0  0  0  0  0  0  0
    1.2878   -2.2894    0.2626 H   0  0  0  1  0  0  0  0  0  0  0  0
    1.3654   -3.2505   -1.1944 H   0  0  0  1  0  0  0  0  0  0  0  0
    1.2575   -1.5094   -1.3005 H   0  0  0  1  0  0  0  0  0  0  0  0
    4.0042   -4.2286    0.2555 H   0  0  0  1  0  0  0  0  0  0  0  0
    4.5591   -5.9085   -1.3330 H   0  0  0  1  0  0  0  0  0  0  0  0
    5.5250   -6.3073    0.0672 H   0  0  0  1  0  0  0  0  0  0  0  0
    6.2296   -5.4029   -1.2518 H   0  0  0  1  0  0  0  0  0  0  0  0
  1  3  1  0  0  0  0
  1 14  2  0  0  0  0
  1 19  1  0  0  0  0
  2  3  1  0  0  0  0
  2 16  1  0  0  0  0
  2 21  1  0  0  0  0
  3  4  1  0  0  0  0
  3 22  1  0  0  0  0
  4  5  1  0  0  0  0
  4 23  1  0  0  0  0
  4 24  1  0  0  0  0
  5  6  4  0  0  0  0
  5 13  4  0  0  0  0
  6  7  4  0  0  0  0
  6 25  1  0  0  0  0
  7  8  4  0  0  0  0
  7 26  1  0  0  0  0
  8  9  4  0  0  0  0
  8 13  4  0  0  0  0
  9 10  4  0  0  0  0
  9 27  1  0  0  0  0
 10 11  4  0  0  0  0
 10 28  1  0  0  0  0
 11 12  4  0  0  0  0
 11 15  1  0  0  0  0
 12 13  4  0  0  0  0
 12 29  1  0  0  0  0
 16 17  2  0  0  0  0
 16 18  1  0  0  0  0
 18 30  1  0  0  0  0
 18 31  1  0  0  0  0
 18 32  1  0  0  0  0
 19 20  1  0  0  0  0
 19 33  1  0  0  0  0
 20 34  1  0  0  0  0
 20 35  1  0  0  0  0
 20 36  1  0  0  0  0
M  END
> <ConfClashScore>
0 

> <ConfOneFourInteractionScore>
-0.924495 

> <ConfScore>
0.64169 

> <ConfScorePBest>
0.00706447 

> <ConfTolerance>
0.799666 

$$$$
5F-TRP.3D.capped.mmff94s.pdb
 OpenBabel09172212003D

 36 37  0  0  0  0  0  0  0  0999 V2000
    4.0811   -2.3614    0.0859 C   0  0  0  1  0  0  0  0  0  0  0  0
    6.4560   -1.6974   -0.1981 N   0  0  0  1  0  0  0  0  0  0  0  0
    5.4645   -2.3146    0.7049 C   0  0  0  1  0  0  0  0  0  0  0  0
    5.5271   -1.7308    2.1196 C   0  0  0  1  0  0  0  0  0  0  0  0
    4.7956   -2.5669    3.1354 C   0  0  0  1  0  0  0  0  0  0  0  0
    4.0169   -3.6791    2.8793 C   0  0  0  1  0  0  0  0  0  0  0  0
    3.5215   -4.1415    4.0681 N   0  0  0  1  0  0  0  0  0  0  0  0
    3.9668   -3.3582    5.1063 C   0  0  0  1  0  0  0  0  0  0  0  0
    3.7152   -3.4592    6.4813 C   0  0  0  1  0  0  0  0  0  0  0  0
    4.3092   -2.5098    7.3165 C   0  0  0  1  0  0  0  0  0  0  0  0
    5.1157   -1.5114    6.7860 C   0  0  0  1  0  0  0  0  0  0  0  0
    5.3624   -1.4174    5.4160 C   0  0  0  1  0  0  0  0  0  0  0  0
    4.7733   -2.3619    4.5528 C   0  0  0  1  0  0  0  0  0  0  0  0
    3.4116   -1.3797   -0.1774 O   0  0  0  1  0  0  0  0  0  0  0  0
    5.6747   -0.6100    7.6160 F   0  0  0  1  0  0  0  0  0  0  0  0
    7.2475   -2.4304   -1.0084 C   0  0  0  1  0  0  0  0  0  0  0  0
    7.1409   -3.6450   -1.0634 O   0  0  0  1  0  0  0  0  0  0  0  0
    8.2757   -1.7009   -1.8509 C   0  0  0  1  0  0  0  0  0  0  0  0
    3.6452   -3.6015   -0.1533 N   0  0  0  1  0  0  0  0  0  0  0  0
    2.2767   -3.8788   -0.5635 C   0  0  0  1  0  0  0  0  0  0  0  0
    6.5423   -0.7212   -0.2093 H   0  0  0  1  0  0  0  0  0  0  0  0
    5.7629   -3.3368    0.8098 H   0  0  0  1  0  0  0  0  0  0  0  0
    5.0906   -0.7540    2.1046 H   0  0  0  1  0  0  0  0  0  0  0  0
    6.5535   -1.6589    2.4133 H   0  0  0  1  0  0  0  0  0  0  0  0
    3.8379   -4.0941    1.9426 H   0  0  0  1  0  0  0  0  0  0  0  0
    2.9335   -4.9194    4.1654 H   0  0  0  1  0  0  0  0  0  0  0  0
    3.1093   -4.2123    6.8653 H   0  0  0  1  0  0  0  0  0  0  0  0
    4.1462   -2.5510    8.3428 H   0  0  0  1  0  0  0  0  0  0  0  0
    5.9707   -0.6630    5.0386 H   0  0  0  1  0  0  0  0  0  0  0  0
    9.1267   -1.4617   -1.2480 H   0  0  0  1  0  0  0  0  0  0  0  0
    7.8466   -0.7993   -2.2354 H   0  0  0  1  0  0  0  0  0  0  0  0
    8.5794   -2.3270   -2.6637 H   0  0  0  1  0  0  0  0  0  0  0  0
    4.2686   -4.3504   -0.0488 H   0  0  0  1  0  0  0  0  0  0  0  0
    1.9084   -3.0648   -1.1522 H   0  0  0  1  0  0  0  0  0  0  0  0
    1.6618   -3.9982    0.3040 H   0  0  0  1  0  0  0  0  0  0  0  0
    2.2538   -4.7774   -1.1440 H   0  0  0  1  0  0  0  0  0  0  0  0
  1  3  1  0  0  0  0
  1 14  2  0  0  0  0
  1 19  1  0  0  0  0
  2  3  1  0  0  0  0
  2 16  1  0  0  0  0
  2 21  1  0  0  0  0
  3  4  1  0  0  0  0
  3 22  1  0  0  0  0
  4  5  1  0  0  0  0
  4 23  1  0  0  0  0
  4 24  1  0  0  0  0
  5  6  4  0  0  0  0
  5 13  4  0  0  0  0
  6  7  4  0  0  0  0
  6 25  1  0  0  0  0
  7  8  4  0  0  0  0
  7 26  1  0  0  0  0
  8  9  4  0  0  0  0
  8 13  4  0  0  0  0
  9 10  4  0  0  0  0
  9 27  1  0  0  0  0
 10 11  4  0  0  0  0
 10 28  1  0  0  0  0
 11 12  4  0  0  0  0
 11 15  1  0  0  0  0
 12 13  4  0  0  0  0
 12 29  1  0  0  0  0
 16 17  2  0  0  0  0
 16 18  1  0  0  0  0
 18 30  1  0  0  0  0
 18 31  1  0  0  0  0
 18 32  1  0  0  0  0
 19 20  1  0  0  0  0
 19 33  1  0  0  0  0
 20 34  1  0  0  0  0
 20 35  1  0  0  0  0
 20 36  1  0  0  0  0
M  END
> <ConfClashScore>
0 

> <ConfOneFourInteractionScore>
-0.970686 

> <ConfScore>
0.643267 

> <ConfScorePBest>
0.00696147 

> <ConfTolerance>
0.805917 

$$$$
5F-TRP.3D.capped.mmff94s.pdb
 OpenBabel09172212003D

 36 37  0  0  0  0  0  0  0  0999 V2000
    5.8827   -3.5918    0.4659 C   0  0  0  1  0  0  0  0  0  0  0  0
    3.8909   -2.1265    0.3472 N   0  0  0  1  0  0  0  0  0  0  0  0
    5.3047   -2.2033    0.6834 C   0  0  0  1  0  0  0  0  0  0  0  0
    5.5271   -1.7308    2.1196 C   0  0  0  1  0  0  0  0  0  0  0  0
    4.7956   -2.5669    3.1354 C   0  0  0  1  0  0  0  0  0  0  0  0
    4.0169   -3.6791    2.8793 C   0  0  0  1  0  0  0  0  0  0  0  0
    3.5215   -4.1415    4.0681 N   0  0  0  1  0  0  0  0  0  0  0  0
    3.9668   -3.3582    5.1063 C   0  0  0  1  0  0  0  0  0  0  0  0
    3.7152   -3.4592    6.4813 C   0  0  0  1  0  0  0  0  0  0  0  0
    4.3092   -2.5098    7.3165 C   0  0  0  1  0  0  0  0  0  0  0  0
    5.1157   -1.5114    6.7860 C   0  0  0  1  0  0  0  0  0  0  0  0
    5.3624   -1.4174    5.4160 C   0  0  0  1  0  0  0  0  0  0  0  0
    4.7733   -2.3619    4.5528 C   0  0  0  1  0  0  0  0  0  0  0  0
    5.2125   -4.6018    0.5805 O   0  0  0  1  0  0  0  0  0  0  0  0
    5.6747   -0.6100    7.6160 F   0  0  0  1  0  0  0  0  0  0  0  0
    3.3049   -0.9763   -0.0454 C   0  0  0  1  0  0  0  0  0  0  0  0
    3.9273    0.0849   -0.0494 O   0  0  0  1  0  0  0  0  0  0  0  0
    1.8540   -1.0286   -0.4827 C   0  0  0  1  0  0  0  0  0  0  0  0
    7.1718   -3.7143    0.1369 N   0  0  0  1  0  0  0  0  0  0  0  0
    7.7709   -4.9985   -0.1944 C   0  0  0  1  0  0  0  0  0  0  0  0
    3.3454   -2.9384    0.4082 H   0  0  0  1  0  0  0  0  0  0  0  0
    5.8368   -1.5320    0.0423 H   0  0  0  1  0  0  0  0  0  0  0  0
    5.1868   -0.7197    2.2020 H   0  0  0  1  0  0  0  0  0  0  0  0
    6.5746   -1.7737    2.3339 H   0  0  0  1  0  0  0  0  0  0  0  0
    3.8379   -4.0941    1.9426 H   0  0  0  1  0  0  0  0  0  0  0  0
    2.9335   -4.9194    4.1654 H   0  0  0  1  0  0  0  0  0  0  0  0
    3.1093   -4.2123    6.8653 H   0  0  0  1  0  0  0  0  0  0  0  0
    4.1462   -2.5510    8.3428 H   0  0  0  1  0  0  0  0  0  0  0  0
    5.9707   -0.6630    5.0386 H   0  0  0  1  0  0  0  0  0  0  0  0
    1.2407   -1.3112    0.3474 H   0  0  0  1  0  0  0  0  0  0  0  0
    1.7440   -1.7470   -1.2680 H   0  0  0  1  0  0  0  0  0  0  0  0
    1.5532   -0.0644   -0.8360 H   0  0  0  1  0  0  0  0  0  0  0  0
    7.7334   -2.9114    0.1180 H   0  0  0  1  0  0  0  0  0  0  0  0
    7.0288   -5.6387   -0.6239 H   0  0  0  1  0  0  0  0  0  0  0  0
    8.1601   -5.4500    0.6941 H   0  0  0  1  0  0  0  0  0  0  0  0
    8.5642   -4.8510   -0.8971 H   0  0  0  1  0  0  0  0  0  0  0  0
  1  3  1  0  0  0  0
  1 14  2  0  0  0  0
  1 19  1  0  0  0  0
  2  3  1  0  0  0  0
  2 16  1  0  0  0  0
  2 21  1  0  0  0  0
  3  4  1  0  0  0  0
  3 22  1  0  0  0  0
  4  5  1  0  0  0  0
  4 23  1  0  0  0  0
  4 24  1  0  0  0  0
  5  6  4  0  0  0  0
  5 13  4  0  0  0  0
  6  7  4  0  0  0  0
  6 25  1  0  0  0  0
  7  8  4  0  0  0  0
  7 26  1  0  0  0  0
  8  9  4  0  0  0  0
  8 13  4  0  0  0  0
  9 10  4  0  0  0  0
  9 27  1  0  0  0  0
 10 11  4  0  0  0  0
 10 28  1  0  0  0  0
 11 12  4  0  0  0  0
 11 15  1  0  0  0  0
 12 13  4  0  0  0  0
 12 29  1  0  0  0  0
 16 17  2  0  0  0  0
 16 18  1  0  0  0  0
 18 30  1  0  0  0  0
 18 31  1  0  0  0  0
 18 32  1  0  0  0  0
 19 20  1  0  0  0  0
 19 33  1  0  0  0  0
 20 34  1  0  0  0  0
 20 35  1  0  0  0  0
 20 36  1  0  0  0  0
M  END
> <ConfClashScore>
0 

> <ConfOneFourInteractionScore>
-0.973348 

> <ConfScore>
0.645239 

> <ConfScorePBest>
0.00685847 

> <ConfTolerance>
0.977298 

$$$$
5F-TRP.3D.capped.mmff94s.pdb
 OpenBabel09172212003D

 36 37  0  0  0  0  0  0  0  0999 V2000
    7.2182    0.0570    1.6365 C   0  0  0  1  0  0  0  0  0  0  0  0
    5.3902    0.4214    3.2614 N   0  0  0  1  0  0  0  0  0  0  0  0
    6.3068   -0.5508    2.6848 C   0  0  0  1  0  0  0  0  0  0  0  0
    5.5271   -1.7308    2.1196 C   0  0  0  1  0  0  0  0  0  0  0  0
    4.7956   -2.5669    3.1354 C   0  0  0  1  0  0  0  0  0  0  0  0
    4.0169   -3.6791    2.8793 C   0  0  0  1  0  0  0  0  0  0  0  0
    3.5215   -4.1415    4.0681 N   0  0  0  1  0  0  0  0  0  0  0  0
    3.9668   -3.3582    5.1063 C   0  0  0  1  0  0  0  0  0  0  0  0
    3.7152   -3.4592    6.4813 C   0  0  0  1  0  0  0  0  0  0  0  0
    4.3092   -2.5098    7.3165 C   0  0  0  1  0  0  0  0  0  0  0  0
    5.1157   -1.5114    6.7860 C   0  0  0  1  0  0  0  0  0  0  0  0
    5.3624   -1.4174    5.4160 C   0  0  0  1  0  0  0  0  0  0  0  0
    4.7733   -2.3619    4.5528 C   0  0  0  1  0  0  0  0  0  0  0  0
    6.7858    0.8338    0.7891 O   0  0  0  1  0  0  0  0  0  0  0  0
    5.6747   -0.6100    7.6160 F   0  0  0  1  0  0  0  0  0  0  0  0
    5.7977    1.6178    3.6924 C   0  0  0  1  0  0  0  0  0  0  0  0
    6.9597    1.9848    3.6328 O   0  0  0  1  0  0  0  0  0  0  0  0
    4.7185    2.5123    4.2706 C   0  0  0  1  0  0  0  0  0  0  0  0
    8.5080   -0.3094    1.7018 N   0  0  0  1  0  0  0  0  0  0  0  0
    9.5181    0.2387    0.8090 C   0  0  0  1  0  0  0  0  0  0  0  0
    4.4408    0.1900    3.3360 H   0  0  0  1  0  0  0  0  0  0  0  0
    6.9292   -0.9275    3.4695 H   0  0  0  1  0  0  0  0  0  0  0  0
    6.2171   -2.3660    1.6045 H   0  0  0  1  0  0  0  0  0  0  0  0
    4.8071   -1.3490    1.4262 H   0  0  0  1  0  0  0  0  0  0  0  0
    3.8379   -4.0941    1.9426 H   0  0  0  1  0  0  0  0  0  0  0  0
    2.9335   -4.9194    4.1654 H   0  0  0  1  0  0  0  0  0  0  0  0
    3.1093   -4.2123    6.8653 H   0  0  0  1  0  0  0  0  0  0  0  0
    4.1462   -2.5510    8.3428 H   0  0  0  1  0  0  0  0  0  0  0  0
    5.9707   -0.6630    5.0386 H   0  0  0  1  0  0  0  0  0  0  0  0
    3.9741    2.7013    3.5255 H   0  0  0  1  0  0  0  0  0  0  0  0
    5.1532    3.4388    4.5831 H   0  0  0  1  0  0  0  0  0  0  0  0
    4.2668    2.0282    5.1111 H   0  0  0  1  0  0  0  0  0  0  0  0
    8.7788   -0.9691    2.3741 H   0  0  0  1  0  0  0  0  0  0  0  0
    9.0922    1.0334    0.2329 H   0  0  0  1  0  0  0  0  0  0  0  0
    9.8680   -0.5299    0.1520 H   0  0  0  1  0  0  0  0  0  0  0  0
   10.3368    0.6157    1.3857 H   0  0  0  1  0  0  0  0  0  0  0  0
  1  3  1  0  0  0  0
  1 14  2  0  0  0  0
  1 19  1  0  0  0  0
  2  3  1  0  0  0  0
  2 16  1  0  0  0  0
  2 21  1  0  0  0  0
  3  4  1  0  0  0  0
  3 22  1  0  0  0  0
  4  5  1  0  0  0  0
  4 23  1  0  0  0  0
  4 24  1  0  0  0  0
  5  6  4  0  0  0  0
  5 13  4  0  0  0  0
  6  7  4  0  0  0  0
  6 25  1  0  0  0  0
  7  8  4  0  0  0  0
  7 26  1  0  0  0  0
  8  9  4  0  0  0  0
  8 13  4  0  0  0  0
  9 10  4  0  0  0  0
  9 27  1  0  0  0  0
 10 11  4  0  0  0  0
 10 28  1  0  0  0  0
 11 12  4  0  0  0  0
 11 15  1  0  0  0  0
 12 13  4  0  0  0  0
 12 29  1  0  0  0  0
 16 17  2  0  0  0  0
 16 18  1  0  0  0  0
 18 30  1  0  0  0  0
 18 31  1  0  0  0  0
 18 32  1  0  0  0  0
 19 20  1  0  0  0  0
 19 33  1  0  0  0  0
 20 34  1  0  0  0  0
 20 35  1  0  0  0  0
 20 36  1  0  0  0  0
M  END
> <ConfClashScore>
0 

> <ConfOneFourInteractionScore>
-0.96681 

> <ConfScore>
0.654453 

> <ConfScorePBest>
0.00675547 

> <ConfTolerance>
1.10458 

$$$$
5F-TRP.3D.capped.mmff94s.pdb
 OpenBabel09172212003D

 36 37  0  0  0  0  0  0  0  0999 V2000
    3.6814   -0.1329    1.7123 C   0  0  0  1  0  0  0  0  0  0  0  0
    5.5219    0.4433    3.2144 N   0  0  0  1  0  0  0  0  0  0  0  0
    5.1717   -0.2830    2.0029 C   0  0  0  1  0  0  0  0  0  0  0  0
    5.5449   -1.7420    2.1218 C   0  0  0  1  0  0  0  0  0  0  0  0
    4.8055   -2.5689    3.1393 C   0  0  0  1  0  0  0  0  0  0  0  0
    4.0269   -3.6623    2.8989 C   0  0  0  1  0  0  0  0  0  0  0  0
    3.5059   -4.1405    4.0739 N   0  0  0  1  0  0  0  0  0  0  0  0
    3.9589   -3.3701    5.1097 C   0  0  0  1  0  0  0  0  0  0  0  0
    3.7219   -3.4623    6.4840 C   0  0  0  1  0  0  0  0  0  0  0  0
    4.3140   -2.5193    7.2958 C   0  0  0  1  0  0  0  0  0  0  0  0
    5.1134   -1.5087    6.7710 C   0  0  0  1  0  0  0  0  0  0  0  0
    5.3526   -1.4202    5.4174 C   0  0  0  1  0  0  0  0  0  0  0  0
    4.7766   -2.3667    4.5630 C   0  0  0  1  0  0  0  0  0  0  0  0
    2.8851    0.1108    2.6150 O   0  0  0  1  0  0  0  0  0  0  0  0
    5.6627   -0.6012    7.6008 F   0  0  0  1  0  0  0  0  0  0  0  0
    6.7765    0.8753    3.4586 C   0  0  0  1  0  0  0  0  0  0  0  0
    7.6876    0.6660    2.6587 O   0  0  0  1  0  0  0  0  0  0  0  0
    7.0319    1.6256    4.7460 C   0  0  0  1  0  0  0  0  0  0  0  0
    3.2704   -0.2743    0.4490 N   0  0  0  1  0  0  0  0  0  0  0  0
    1.8830   -0.0777    0.0562 C   0  0  0  1  0  0  0  0  0  0  0  0
    4.8220    0.6249    3.8759 H   0  0  0  1  0  0  0  0  0  0  0  0
    5.7142    0.1317    1.1791 H   0  0  0  1  0  0  0  0  0  0  0  0
    6.5854   -1.7873    2.3673 H   0  0  0  1  0  0  0  0  0  0  0  0
    5.3838   -2.1927    1.1648 H   0  0  0  1  0  0  0  0  0  0  0  0
    3.8531   -4.0742    1.9598 H   0  0  0  1  0  0  0  0  0  0  0  0
    2.9055   -4.9104    4.1581 H   0  0  0  1  0  0  0  0  0  0  0  0
    3.1215   -4.2141    6.8790 H   0  0  0  1  0  0  0  0  0  0  0  0
    4.1599   -2.5640    8.3234 H   0  0  0  1  0  0  0  0  0  0  0  0
    5.9526   -0.6611    5.0361 H   0  0  0  1  0  0  0  0  0  0  0  0
    6.6658    1.0526    5.5721 H   0  0  0  1  0  0  0  0  0  0  0  0
    6.5274    2.5687    4.7150 H   0  0  0  1  0  0  0  0  0  0  0  0
    8.0833    1.7867    4.8621 H   0  0  0  1  0  0  0  0  0  0  0  0
    3.9260   -0.5190   -0.2371 H   0  0  0  1  0  0  0  0  0  0  0  0
    1.8463    0.3473   -0.9251 H   0  0  0  1  0  0  0  0  0  0  0  0
    1.4067    0.5840    0.7492 H   0  0  0  1  0  0  0  0  0  0  0  0
    1.3757   -1.0198    0.0558 H   0  0  0  1  0  0  0  0  0  0  0  0
  1  3  1  0  0  0  0
  1 14  2  0  0  0  0
  1 19  1  0  0  0  0
  2  3  1  0  0  0  0
  2 16  1  0  0  0  0
  2 21  1  0  0  0  0
  3  4  1  0  0  0  0
  3 22  1  0  0  0  0
  4  5  1  0  0  0  0
  4 23  1  0  0  0  0
  4 24  1  0  0  0  0
  5  6  4  0  0  0  0
  5 13  4  0  0  0  0
  6  7  4  0  0  0  0
  6 25  1  0  0  0  0
  7  8  4  0  0  0  0
  7 26  1  0  0  0  0
  8  9  4  0  0  0  0
  8 13  4  0  0  0  0
  9 10  4  0  0  0  0
  9 27  1  0  0  0  0
 10 11  4  0  0  0  0
 10 28  1  0  0  0  0
 11 12  4  0  0  0  0
 11 15  1  0  0  0  0
 12 13  4  0  0  0  0
 12 29  1  0  0  0  0
 16 17  2  0  0  0  0
 16 18  1  0  0  0  0
 18 30  1  0  0  0  0
 18 31  1  0  0  0  0
 18 32  1  0  0  0  0
 19 20  1  0  0  0  0
 19 33  1  0  0  0  0
 20 34  1  0  0  0  0
 20 35  1  0  0  0  0
 20 36  1  0  0  0  0
M  END
> <ConfClashScore>
0 

> <ConfOneFourInteractionScore>
-0.987258 

> <ConfScore>
0.662478 

> <ConfScorePBest>
0.00665247 

> <ConfTolerance>
0.928334 

$$$$
5F-TRP.3D.capped.mmff94s.pdb
 OpenBabel09172212003D

 36 37  0  0  0  0  0  0  0  0999 V2000
    7.6647   -1.3643    0.8282 C   0  0  0  1  0  0  0  0  0  0  0  0
    7.7416   -2.2549    3.1014 N   0  0  0  1  0  0  0  0  0  0  0  0
    6.9712   -2.2374    1.8683 C   0  0  0  1  0  0  0  0  0  0  0  0
    5.5449   -1.7420    2.1218 C   0  0  0  1  0  0  0  0  0  0  0  0
    4.8055   -2.5689    3.1393 C   0  0  0  1  0  0  0  0  0  0  0  0
    4.0269   -3.6623    2.8989 C   0  0  0  1  0  0  0  0  0  0  0  0
    3.5059   -4.1405    4.0739 N   0  0  0  1  0  0  0  0  0  0  0  0
    3.9589   -3.3701    5.1097 C   0  0  0  1  0  0  0  0  0  0  0  0
    3.7219   -3.4623    6.4840 C   0  0  0  1  0  0  0  0  0  0  0  0
    4.3140   -2.5193    7.2958 C   0  0  0  1  0  0  0  0  0  0  0  0
    5.1134   -1.5087    6.7710 C   0  0  0  1  0  0  0  0  0  0  0  0
    5.3526   -1.4202    5.4174 C   0  0  0  1  0  0  0  0  0  0  0  0
    4.7766   -2.3667    4.5630 C   0  0  0  1  0  0  0  0  0  0  0  0
    7.0214   -0.6274    0.0820 O   0  0  0  1  0  0  0  0  0  0  0  0
    5.6627   -0.6012    7.6008 F   0  0  0  1  0  0  0  0  0  0  0  0
    7.8752   -1.1737    3.8749 C   0  0  0  1  0  0  0  0  0  0  0  0
    7.3060   -0.1065    3.6614 O   0  0  0  1  0  0  0  0  0  0  0  0
    8.7272   -1.3744    5.1261 C   0  0  0  1  0  0  0  0  0  0  0  0
    8.9969   -1.4570    0.7877 N   0  0  0  1  0  0  0  0  0  0  0  0
    9.9126   -0.6749   -0.0294 C   0  0  0  1  0  0  0  0  0  0  0  0
    8.1780   -3.0888    3.3746 H   0  0  0  1  0  0  0  0  0  0  0  0
    6.9118   -3.2328    1.4803 H   0  0  0  1  0  0  0  0  0  0  0  0
    5.0042   -1.7740    1.1990 H   0  0  0  1  0  0  0  0  0  0  0  0
    5.5925   -0.7324    2.4730 H   0  0  0  1  0  0  0  0  0  0  0  0
    3.8531   -4.0742    1.9598 H   0  0  0  1  0  0  0  0  0  0  0  0
    2.9055   -4.9104    4.1581 H   0  0  0  1  0  0  0  0  0  0  0  0
    3.1215   -4.2141    6.8790 H   0  0  0  1  0  0  0  0  0  0  0  0
    4.1599   -2.5640    8.3234 H   0  0  0  1  0  0  0  0  0  0  0  0
    5.9526   -0.6611    5.0361 H   0  0  0  1  0  0  0  0  0  0  0  0
    9.5457   -2.0254    4.9002 H   0  0  0  1  0  0  0  0  0  0  0  0
    8.1285   -1.8093    5.8989 H   0  0  0  1  0  0  0  0  0  0  0  0
    9.1043   -0.4289    5.4559 H   0  0  0  1  0  0  0  0  0  0  0  0
    9.4036   -2.1278    1.3751 H   0  0  0  1  0  0  0  0  0  0  0  0
    9.4801    0.2821   -0.2343 H   0  0  0  1  0  0  0  0  0  0  0  0
   10.0955   -1.1880   -0.9504 H   0  0  0  1  0  0  0  0  0  0  0  0
   10.8356   -0.5438    0.4957 H   0  0  0  1  0  0  0  0  0  0  0  0
  1  3  1  0  0  0  0
  1 14  2  0  0  0  0
  1 19  1  0  0  0  0
  2  3  1  0  0  0  0
  2 16  1  0  0  0  0
  2 21  1  0  0  0  0
  3  4  1  0  0  0  0
  3 22  1  0  0  0  0
  4  5  1  0  0  0  0
  4 23  1  0  0  0  0
  4 24  1  0  0  0  0
  5  6  4  0  0  0  0
  5 13  4  0  0  0  0
  6  7  4  0  0  0  0
  6 25  1  0  0  0  0
  7  8  4  0  0  0  0
  7 26  1  0  0  0  0
  8  9  4  0  0  0  0
  8 13  4  0  0  0  0
  9 10  4  0  0  0  0
  9 27  1  0  0  0  0
 10 11  4  0  0  0  0
 10 28  1  0  0  0  0
 11 12  4  0  0  0  0
 11 15  1  0  0  0  0
 12 13  4  0  0  0  0
 12 29  1  0  0  0  0
 16 17  2  0  0  0  0
 16 18  1  0  0  0  0
 18 30  1  0  0  0  0
 18 31  1  0  0  0  0
 18 32  1  0  0  0  0
 19 20  1  0  0  0  0
 19 33  1  0  0  0  0
 20 34  1  0  0  0  0
 20 35  1  0  0  0  0
 20 36  1  0  0  0  0
M  END
> <ConfClashScore>
0 

> <ConfOneFourInteractionScore>
-0.953096 

> <ConfScore>
0.663735 

> <ConfScorePBest>
0.00654947 

> <ConfTolerance>
0.349466 

$$$$
5F-TRP.3D.capped.mmff94s.pdb
 OpenBabel09172212003D

 36 37  0  0  0  0  0  0  0  0999 V2000
    5.5929    0.4590    0.8614 C   0  0  0  1  0  0  0  0  0  0  0  0
    3.5577   -0.9050    0.9699 N   0  0  0  1  0  0  0  0  0  0  0  0
    4.7466   -0.4830    1.6954 C   0  0  0  1  0  0  0  0  0  0  0  0
    5.5271   -1.7308    2.1196 C   0  0  0  1  0  0  0  0  0  0  0  0
    4.7956   -2.5669    3.1354 C   0  0  0  1  0  0  0  0  0  0  0  0
    4.0169   -3.6791    2.8793 C   0  0  0  1  0  0  0  0  0  0  0  0
    3.5215   -4.1415    4.0681 N   0  0  0  1  0  0  0  0  0  0  0  0
    3.9668   -3.3582    5.1063 C   0  0  0  1  0  0  0  0  0  0  0  0
    3.7152   -3.4592    6.4813 C   0  0  0  1  0  0  0  0  0  0  0  0
    4.3092   -2.5098    7.3165 C   0  0  0  1  0  0  0  0  0  0  0  0
    5.1157   -1.5114    6.7860 C   0  0  0  1  0  0  0  0  0  0  0  0
    5.3624   -1.4174    5.4160 C   0  0  0  1  0  0  0  0  0  0  0  0
    4.7733   -2.3619    4.5528 C   0  0  0  1  0  0  0  0  0  0  0  0
    6.7016    0.8093    1.2310 O   0  0  0  1  0  0  0  0  0  0  0  0
    5.6747   -0.6100    7.6160 F   0  0  0  1  0  0  0  0  0  0  0  0
    2.3125   -0.5831    1.3775 C   0  0  0  1  0  0  0  0  0  0  0  0
    2.1315    0.1366    2.3561 O   0  0  0  1  0  0  0  0  0  0  0  0
    1.1398   -1.1363    0.5914 C   0  0  0  1  0  0  0  0  0  0  0  0
    5.0427    0.8713   -0.2916 N   0  0  0  1  0  0  0  0  0  0  0  0
    5.6557    1.9254   -1.1263 C   0  0  0  1  0  0  0  0  0  0  0  0
    3.6653   -1.4417    0.1570 H   0  0  0  1  0  0  0  0  0  0  0  0
    4.4464    0.0354    2.5820 H   0  0  0  1  0  0  0  0  0  0  0  0
    6.4605   -1.4216    2.5416 H   0  0  0  1  0  0  0  0  0  0  0  0
    5.7085   -2.3303    1.2521 H   0  0  0  1  0  0  0  0  0  0  0  0
    3.8379   -4.0941    1.9426 H   0  0  0  1  0  0  0  0  0  0  0  0
    2.9335   -4.9194    4.1654 H   0  0  0  1  0  0  0  0  0  0  0  0
    3.1093   -4.2123    6.8653 H   0  0  0  1  0  0  0  0  0  0  0  0
    4.1462   -2.5510    8.3428 H   0  0  0  1  0  0  0  0  0  0  0  0
    5.9707   -0.6630    5.0386 H   0  0  0  1  0  0  0  0  0  0  0  0
    0.7895   -0.3953   -0.0963 H   0  0  0  1  0  0  0  0  0  0  0  0
    0.3510   -1.3985    1.2652 H   0  0  0  1  0  0  0  0  0  0  0  0
    1.4514   -2.0054    0.0507 H   0  0  0  1  0  0  0  0  0  0  0  0
    4.2054    0.4588   -0.5901 H   0  0  0  1  0  0  0  0  0  0  0  0
    4.9710    2.2150   -1.8958 H   0  0  0  1  0  0  0  0  0  0  0  0
    6.5539    1.5506   -1.5710 H   0  0  0  1  0  0  0  0  0  0  0  0
    5.8862    2.7739   -0.5165 H   0  0  0  1  0  0  0  0  0  0  0  0
  1  3  1  0  0  0  0
  1 14  2  0  0  0  0
  1 19  1  0  0  0  0
  2  3  1  0  0  0  0
  2 16  1  0  0  0  0
  2 21  1  0  0  0  0
  3  4  1  0  0  0  0
  3 22  1  0  0  0  0
  4  5  1  0  0  0  0
  4 23  1  0  0  0  0
  4 24  1  0  0  0  0
  5  6  4  0  0  0  0
  5 13  4  0  0  0  0
  6  7  4  0  0  0  0
  6 25  1  0  0  0  0
  7  8  4  0  0  0  0
  7 26  1  0  0  0  0
  8  9  4  0  0  0  0
  8 13  4  0  0  0  0
  9 10  4  0  0  0  0
  9 27  1  0  0  0  0
 10 11  4  0  0  0  0
 10 28  1  0  0  0  0
 11 12  4  0  0  0  0
 11 15  1  0  0  0  0
 12 13  4  0  0  0  0
 12 29  1  0  0  0  0
 16 17  2  0  0  0  0
 16 18  1  0  0  0  0
 18 30  1  0  0  0  0
 18 31  1  0  0  0  0
 18 32  1  0  0  0  0
 19 20  1  0  0  0  0
 19 33  1  0  0  0  0
 20 34  1  0  0  0  0
 20 35  1  0  0  0  0
 20 36  1  0  0  0  0
M  END
> <ConfClashScore>
0 

> <ConfOneFourInteractionScore>
-0.956443 

> <ConfScore>
0.66588 

> <ConfScorePBest>
0.00644647 

> <ConfTolerance>
0.517644 

$$$$
5F-TRP.3D.capped.mmff94s.pdb
 OpenBabel09172212003D

 36 37  0  0  0  0  0  0  0  0999 V2000
    3.4580   -0.7051    1.1788 C   0  0  0  1  0  0  0  0  0  0  0  0
    4.6919    0.4214    2.9523 N   0  0  0  1  0  0  0  0  0  0  0  0
    4.8235   -0.4241    1.7751 C   0  0  0  1  0  0  0  0  0  0  0  0
    5.5449   -1.7420    2.1218 C   0  0  0  1  0  0  0  0  0  0  0  0
    4.8055   -2.5689    3.1393 C   0  0  0  1  0  0  0  0  0  0  0  0
    4.0269   -3.6623    2.8989 C   0  0  0  1  0  0  0  0  0  0  0  0
    3.5059   -4.1405    4.0739 N   0  0  0  1  0  0  0  0  0  0  0  0
    3.9589   -3.3701    5.1097 C   0  0  0  1  0  0  0  0  0  0  0  0
    3.7219   -3.4623    6.4840 C   0  0  0  1  0  0  0  0  0  0  0  0
    4.3140   -2.5193    7.2958 C   0  0  0  1  0  0  0  0  0  0  0  0
    5.1134   -1.5087    6.7710 C   0  0  0  1  0  0  0  0  0  0  0  0
    5.3526   -1.4202    5.4174 C   0  0  0  1  0  0  0  0  0  0  0  0
    4.7766   -2.3667    4.5630 C   0  0  0  1  0  0  0  0  0  0  0  0
    2.4643   -0.8344    1.8921 O   0  0  0  1  0  0  0  0  0  0  0  0
    5.6627   -0.6012    7.6008 F   0  0  0  1  0  0  0  0  0  0  0  0
    3.9325    1.5207    2.9602 C   0  0  0  1  0  0  0  0  0  0  0  0
    3.3961    1.9716    1.9490 O   0  0  0  1  0  0  0  0  0  0  0  0
    3.7641    2.1952    4.3078 C   0  0  0  1  0  0  0  0  0  0  0  0
    3.4148   -0.8001   -0.1532 N   0  0  0  1  0  0  0  0  0  0  0  0
    2.1915   -1.1285   -0.8698 C   0  0  0  1  0  0  0  0  0  0  0  0
    5.1773    0.1760    3.7675 H   0  0  0  1  0  0  0  0  0  0  0  0
    5.4098    0.0887    1.0415 H   0  0  0  1  0  0  0  0  0  0  0  0
    6.5133   -1.5077    2.5120 H   0  0  0  1  0  0  0  0  0  0  0  0
    5.6505   -2.3181    1.2264 H   0  0  0  1  0  0  0  0  0  0  0  0
    3.8531   -4.0742    1.9598 H   0  0  0  1  0  0  0  0  0  0  0  0
    2.9055   -4.9104    4.1581 H   0  0  0  1  0  0  0  0  0  0  0  0
    3.1215   -4.2141    6.8790 H   0  0  0  1  0  0  0  0  0  0  0  0
    4.1599   -2.5640    8.3234 H   0  0  0  1  0  0  0  0  0  0  0  0
    5.9526   -0.6611    5.0361 H   0  0  0  1  0  0  0  0  0  0  0  0
    3.2005    3.0968    4.1879 H   0  0  0  1  0  0  0  0  0  0  0  0
    4.7268    2.4279    4.7127 H   0  0  0  1  0  0  0  0  0  0  0  0
    3.2461    1.5369    4.9736 H   0  0  0  1  0  0  0  0  0  0  0  0
    4.2354   -0.6431   -0.6654 H   0  0  0  1  0  0  0  0  0  0  0  0
    1.5044   -0.3115   -0.7967 H   0  0  0  1  0  0  0  0  0  0  0  0
    1.7510   -2.0040   -0.4405 H   0  0  0  1  0  0  0  0  0  0  0  0
    2.4195   -1.3114   -1.8991 H   0  0  0  1  0  0  0  0  0  0  0  0
  1  3  1  0  0  0  0
  1 14  2  0  0  0  0
  1 19  1  0  0  0  0
  2  3  1  0  0  0  0
  2 16  1  0  0  0  0
  2 21  1  0  0  0  0
  3  4  1  0  0  0  0
  3 22  1  0  0  0  0
  4  5  1  0  0  0  0
  4 23  1  0  0  0  0
  4 24  1  0  0  0  0
  5  6  4  0  0  0  0
  5 13  4  0  0  0  0
  6  7  4  0  0  0  0
  6 25  1  0  0  0  0
  7  8  4  0  0  0  0
  7 26  1  0  0  0  0
  8  9  4  0  0  0  0
  8 13  4  0  0  0  0
  9 10  4  0  0  0  0
  9 27  1  0  0  0  0
 10 11  4  0  0  0  0
 10 28  1  0  0  0  0
 11 12  4  0  0  0  0
 11 15  1  0  0  0  0
 12 13  4  0  0  0  0
 12 29  1  0  0  0  0
 16 17  2  0  0  0  0
 16 18  1  0  0  0  0
 18 30  1  0  0  0  0
 18 31  1  0  0  0  0
 18 32  1  0  0  0  0
 19 20  1  0  0  0  0
 19 33  1  0  0  0  0
 20 34  1  0  0  0  0
 20 35  1  0  0  0  0
 20 36  1  0  0  0  0
M  END
> <ConfClashScore>
0 

> <ConfOneFourInteractionScore>
-0.976093 

> <ConfScore>
0.667865 

> <ConfScorePBest>
0.00634346 

> <ConfTolerance>
1.0796 

$$$$
5F-TRP.3D.capped.mmff94s.pdb
 OpenBabel09172212003D

 36 37  0  0  0  0  0  0  0  0999 V2000
    3.5841   -0.1595    2.2990 C   0  0  0  1  0  0  0  0  0  0  0  0
    5.2977    0.1085    0.5365 N   0  0  0  1  0  0  0  0  0  0  0  0
    4.5598   -0.8392    1.3582 C   0  0  0  1  0  0  0  0  0  0  0  0
    5.5271   -1.7308    2.1196 C   0  0  0  1  0  0  0  0  0  0  0  0
    4.7956   -2.5669    3.1354 C   0  0  0  1  0  0  0  0  0  0  0  0
    4.0169   -3.6791    2.8793 C   0  0  0  1  0  0  0  0  0  0  0  0
    3.5215   -4.1415    4.0681 N   0  0  0  1  0  0  0  0  0  0  0  0
    3.9668   -3.3582    5.1063 C   0  0  0  1  0  0  0  0  0  0  0  0
    3.7152   -3.4592    6.4813 C   0  0  0  1  0  0  0  0  0  0  0  0
    4.3092   -2.5098    7.3165 C   0  0  0  1  0  0  0  0  0  0  0  0
    5.1157   -1.5114    6.7860 C   0  0  0  1  0  0  0  0  0  0  0  0
    5.3624   -1.4174    5.4160 C   0  0  0  1  0  0  0  0  0  0  0  0
    4.7733   -2.3619    4.5528 C   0  0  0  1  0  0  0  0  0  0  0  0
    3.8225    0.9502    2.7736 O   0  0  0  1  0  0  0  0  0  0  0  0
    5.6747   -0.6100    7.6160 F   0  0  0  1  0  0  0  0  0  0  0  0
    5.7825   -0.2154   -0.6656 C   0  0  0  1  0  0  0  0  0  0  0  0
    5.6391   -1.3196   -1.1643 O   0  0  0  1  0  0  0  0  0  0  0  0
    6.5348    0.8836   -1.3905 C   0  0  0  1  0  0  0  0  0  0  0  0
    2.4622   -0.8449    2.5705 N   0  0  0  1  0  0  0  0  0  0  0  0
    1.4441   -0.3407    3.4800 C   0  0  0  1  0  0  0  0  0  0  0  0
    5.4441    1.0158    0.8767 H   0  0  0  1  0  0  0  0  0  0  0  0
    3.9899   -1.4698    0.7082 H   0  0  0  1  0  0  0  0  0  0  0  0
    6.2471   -1.1189    2.6218 H   0  0  0  1  0  0  0  0  0  0  0  0
    6.0272   -2.3766    1.4284 H   0  0  0  1  0  0  0  0  0  0  0  0
    3.8379   -4.0941    1.9426 H   0  0  0  1  0  0  0  0  0  0  0  0
    2.9335   -4.9194    4.1654 H   0  0  0  1  0  0  0  0  0  0  0  0
    3.1093   -4.2123    6.8653 H   0  0  0  1  0  0  0  0  0  0  0  0
    4.1462   -2.5510    8.3428 H   0  0  0  1  0  0  0  0  0  0  0  0
    5.9707   -0.6630    5.0386 H   0  0  0  1  0  0  0  0  0  0  0  0
    7.4042    1.1525   -0.8277 H   0  0  0  1  0  0  0  0  0  0  0  0
    5.9007    1.7389   -1.4972 H   0  0  0  1  0  0  0  0  0  0  0  0
    6.8302    0.5350   -2.3580 H   0  0  0  1  0  0  0  0  0  0  0  0
    2.3240   -1.7150    2.1414 H   0  0  0  1  0  0  0  0  0  0  0  0
    1.9058    0.2608    4.2349 H   0  0  0  1  0  0  0  0  0  0  0  0
    0.9380   -1.1636    3.9400 H   0  0  0  1  0  0  0  0  0  0  0  0
    0.7399    0.2514    2.9338 H   0  0  0  1  0  0  0  0  0  0  0  0
  1  3  1  0  0  0  0
  1 14  2  0  0  0  0
  1 19  1  0  0  0  0
  2  3  1  0  0  0  0
  2 16  1  0  0  0  0
  2 21  1  0  0  0  0
  3  4  1  0  0  0  0
  3 22  1  0  0  0  0
  4  5  1  0  0  0  0
  4 23  1  0  0  0  0
  4 24  1  0  0  0  0
  5  6  4  0  0  0  0
  5 13  4  0  0  0  0
  6  7  4  0  0  0  0
  6 25  1  0  0  0  0
  7  8  4  0  0  0  0
  7 26  1  0  0  0  0
  8  9  4  0  0  0  0
  8 13  4  0  0  0  0
  9 10  4  0  0  0  0
  9 27  1  0  0  0  0
 10 11  4  0  0  0  0
 10 28  1  0  0  0  0
 11 12  4  0  0  0  0
 11 15  1  0  0  0  0
 12 13  4  0  0  0  0
 12 29  1  0  0  0  0
 16 17  2  0  0  0  0
 16 18  1  0  0  0  0
 18 30  1  0  0  0  0
 18 31  1  0  0  0  0
 18 32  1  0  0  0  0
 19 20  1  0  0  0  0
 19 33  1  0  0  0  0
 20 34  1  0  0  0  0
 20 35  1  0  0  0  0
 20 36  1  0  0  0  0
M  END
> <ConfClashScore>
0 

> <ConfOneFourInteractionScore>
-0.986627 

> <ConfScore>
0.67057 

> <ConfScorePBest>
0.00624046 

> <ConfTolerance>
1.34693 

$$$$
5F-TRP.3D.capped.mmff94s.pdb
 OpenBabel09172212003D

 36 37  0  0  0  0  0  0  0  0999 V2000
    5.1526   -0.3177    0.0520 C   0  0  0  1  0  0  0  0  0  0  0  0
    3.2469   -1.0289    1.4629 N   0  0  0  1  0  0  0  0  0  0  0  0
    4.6610   -0.6854    1.4500 C   0  0  0  1  0  0  0  0  0  0  0  0
    5.5449   -1.7420    2.1218 C   0  0  0  1  0  0  0  0  0  0  0  0
    4.8055   -2.5689    3.1393 C   0  0  0  1  0  0  0  0  0  0  0  0
    4.0269   -3.6623    2.8989 C   0  0  0  1  0  0  0  0  0  0  0  0
    3.5059   -4.1405    4.0739 N   0  0  0  1  0  0  0  0  0  0  0  0
    3.9589   -3.3701    5.1097 C   0  0  0  1  0  0  0  0  0  0  0  0
    3.7219   -3.4623    6.4840 C   0  0  0  1  0  0  0  0  0  0  0  0
    4.3140   -2.5193    7.2958 C   0  0  0  1  0  0  0  0  0  0  0  0
    5.1134   -1.5087    6.7710 C   0  0  0  1  0  0  0  0  0  0  0  0
    5.3526   -1.4202    5.4174 C   0  0  0  1  0  0  0  0  0  0  0  0
    4.7766   -2.3667    4.5630 C   0  0  0  1  0  0  0  0  0  0  0  0
    6.0418    0.5134   -0.1128 O   0  0  0  1  0  0  0  0  0  0  0  0
    5.6627   -0.6012    7.6008 F   0  0  0  1  0  0  0  0  0  0  0  0
    2.2458   -0.4027    0.8102 C   0  0  0  1  0  0  0  0  0  0  0  0
    2.4745    0.5268    0.0373 O   0  0  0  1  0  0  0  0  0  0  0  0
    0.8271   -0.8780    1.0567 C   0  0  0  1  0  0  0  0  0  0  0  0
    4.5556   -0.9546   -0.9595 N   0  0  0  1  0  0  0  0  0  0  0  0
    4.8319   -0.6333   -2.3517 C   0  0  0  1  0  0  0  0  0  0  0  0
    2.9929   -1.8031    2.0075 H   0  0  0  1  0  0  0  0  0  0  0  0
    4.7668    0.2010    2.0399 H   0  0  0  1  0  0  0  0  0  0  0  0
    6.3567   -1.2456    2.6112 H   0  0  0  1  0  0  0  0  0  0  0  0
    5.9290   -2.3951    1.3662 H   0  0  0  1  0  0  0  0  0  0  0  0
    3.8531   -4.0742    1.9598 H   0  0  0  1  0  0  0  0  0  0  0  0
    2.9055   -4.9104    4.1581 H   0  0  0  1  0  0  0  0  0  0  0  0
    3.1215   -4.2141    6.8790 H   0  0  0  1  0  0  0  0  0  0  0  0
    4.1599   -2.5640    8.3234 H   0  0  0  1  0  0  0  0  0  0  0  0
    5.9526   -0.6611    5.0361 H   0  0  0  1  0  0  0  0  0  0  0  0
    0.8133   -1.9463    1.1146 H   0  0  0  1  0  0  0  0  0  0  0  0
    0.1988   -0.5566    0.2524 H   0  0  0  1  0  0  0  0  0  0  0  0
    0.4681   -0.4665    1.9768 H   0  0  0  1  0  0  0  0  0  0  0  0
    3.9092   -1.6627   -0.7567 H   0  0  0  1  0  0  0  0  0  0  0  0
    5.8339   -0.2691   -2.4422 H   0  0  0  1  0  0  0  0  0  0  0  0
    4.1478    0.1183   -2.6866 H   0  0  0  1  0  0  0  0  0  0  0  0
    4.7170   -1.5129   -2.9500 H   0  0  0  1  0  0  0  0  0  0  0  0
  1  3  1  0  0  0  0
  1 14  2  0  0  0  0
  1 19  1  0  0  0  0
  2  3  1  0  0  0  0
  2 16  1  0  0  0  0
  2 21  1  0  0  0  0
  3  4  1  0  0  0  0
  3 22  1  0  0  0  0
  4  5  1  0  0  0  0
  4 23  1  0  0  0  0
  4 24  1  0  0  0  0
  5  6  4  0  0  0  0
  5 13  4  0  0  0  0
  6  7  4  0  0  0  0
  6 25  1  0  0  0  0
  7  8  4  0  0  0  0
  7 26  1  0  0  0  0
  8  9  4  0  0  0  0
  8 13  4  0  0  0  0
  9 10  4  0  0  0  0
  9 27  1  0  0  0  0
 10 11  4  0  0  0  0
 10 28  1  0  0  0  0
 11 12  4  0  0  0  0
 11 15  1  0  0  0  0
 12 13  4  0  0  0  0
 12 29  1  0  0  0  0
 16 17  2  0  0  0  0
 16 18  1  0  0  0  0
 18 30  1  0  0  0  0
 18 31  1  0  0  0  0
 18 32  1  0  0  0  0
 19 20  1  0  0  0  0
 19 33  1  0  0  0  0
 20 34  1  0  0  0  0
 20 35  1  0  0  0  0
 20 36  1  0  0  0  0
M  END
> <ConfClashScore>
0 

> <ConfOneFourInteractionScore>
-0.928132 

> <ConfScore>
0.673523 

> <ConfScorePBest>
0.00613746 

> <ConfTolerance>
1.00592 

$$$$
5F-TRP.3D.capped.mmff94s.pdb
 OpenBabel09172212003D

 36 37  0  0  0  0  0  0  0  0999 V2000
    5.5806    0.4253    0.8951 C   0  0  0  1  0  0  0  0  0  0  0  0
    3.4819   -0.8058    1.1445 N   0  0  0  1  0  0  0  0  0  0  0  0
    4.7380   -0.4597    1.7929 C   0  0  0  1  0  0  0  0  0  0  0  0
    5.5271   -1.7308    2.1196 C   0  0  0  1  0  0  0  0  0  0  0  0
    4.7956   -2.5669    3.1354 C   0  0  0  1  0  0  0  0  0  0  0  0
    4.0169   -3.6791    2.8793 C   0  0  0  1  0  0  0  0  0  0  0  0
    3.5215   -4.1415    4.0681 N   0  0  0  1  0  0  0  0  0  0  0  0
    3.9668   -3.3582    5.1063 C   0  0  0  1  0  0  0  0  0  0  0  0
    3.7152   -3.4592    6.4813 C   0  0  0  1  0  0  0  0  0  0  0  0
    4.3092   -2.5098    7.3165 C   0  0  0  1  0  0  0  0  0  0  0  0
    5.1157   -1.5114    6.7860 C   0  0  0  1  0  0  0  0  0  0  0  0
    5.3624   -1.4174    5.4160 C   0  0  0  1  0  0  0  0  0  0  0  0
    4.7733   -2.3619    4.5528 C   0  0  0  1  0  0  0  0  0  0  0  0
    6.8092    0.3933    0.9509 O   0  0  0  1  0  0  0  0  0  0  0  0
    5.6747   -0.6100    7.6160 F   0  0  0  1  0  0  0  0  0  0  0  0
    3.4859   -1.3962   -0.0686 C   0  0  0  1  0  0  0  0  0  0  0  0
    4.4895   -1.5729   -0.7580 O   0  0  0  1  0  0  0  0  0  0  0  0
    2.1132   -1.8408   -0.5345 C   0  0  0  1  0  0  0  0  0  0  0  0
    4.9463    1.2426    0.0397 N   0  0  0  1  0  0  0  0  0  0  0  0
    5.6027    2.1857   -0.8535 C   0  0  0  1  0  0  0  0  0  0  0  0
    2.6314   -0.6096    1.5901 H   0  0  0  1  0  0  0  0  0  0  0  0
    4.5397    0.0633    2.7051 H   0  0  0  1  0  0  0  0  0  0  0  0
    6.4840   -1.4582    2.5132 H   0  0  0  1  0  0  0  0  0  0  0  0
    5.6586   -2.3019    1.2244 H   0  0  0  1  0  0  0  0  0  0  0  0
    3.8379   -4.0941    1.9426 H   0  0  0  1  0  0  0  0  0  0  0  0
    2.9335   -4.9194    4.1654 H   0  0  0  1  0  0  0  0  0  0  0  0
    3.1093   -4.2123    6.8653 H   0  0  0  1  0  0  0  0  0  0  0  0
    4.1462   -2.5510    8.3428 H   0  0  0  1  0  0  0  0  0  0  0  0
    5.9707   -0.6630    5.0386 H   0  0  0  1  0  0  0  0  0  0  0  0
    1.4104   -1.0484   -0.3824 H   0  0  0  1  0  0  0  0  0  0  0  0
    1.8080   -2.7002    0.0250 H   0  0  0  1  0  0  0  0  0  0  0  0
    2.1525   -2.0874   -1.5750 H   0  0  0  1  0  0  0  0  0  0  0  0
    3.9675    1.2011    0.0147 H   0  0  0  1  0  0  0  0  0  0  0  0
    6.6209    1.8905   -0.9988 H   0  0  0  1  0  0  0  0  0  0  0  0
    5.5735    3.1645   -0.4222 H   0  0  0  1  0  0  0  0  0  0  0  0
    5.0965    2.1954   -1.7961 H   0  0  0  1  0  0  0  0  0  0  0  0
  1  3  1  0  0  0  0
  1 14  2  0  0  0  0
  1 19  1  0  0  0  0
  2  3  1  0  0  0  0
  2 16  1  0  0  0  0
  2 21  1  0  0  0  0
  3  4  1  0  0  0  0
  3 22  1  0  0  0  0
  4  5  1  0  0  0  0
  4 23  1  0  0  0  0
  4 24  1  0  0  0  0
  5  6  4  0  0  0  0
  5 13  4  0  0  0  0
  6  7  4  0  0  0  0
  6 25  1  0  0  0  0
  7  8  4  0  0  0  0
  7 26  1  0  0  0  0
  8  9  4  0  0  0  0
  8 13  4  0  0  0  0
  9 10  4  0  0  0  0
  9 27  1  0  0  0  0
 10 11  4  0  0  0  0
 10 28  1  0  0  0  0
 11 12  4  0  0  0  0
 11 15  1  0  0  0  0
 12 13  4  0  0  0  0
 12 29  1  0  0  0  0
 16 17  2  0  0  0  0
 16 18  1  0  0  0  0
 18 30  1  0  0  0  0
 18 31  1  0  0  0  0
 18 32  1  0  0  0  0
 19 20  1  0  0  0  0
 19 33  1  0  0  0  0
 20 34  1  0  0  0  0
 20 35  1  0  0  0  0
 20 36  1  0  0  0  0
M  END
> <ConfClashScore>
0 

> <ConfOneFourInteractionScore>
-0.953489 

> <ConfScore>
0.683184 

> <ConfScorePBest>
0.00603446 

> <ConfTolerance>
0.34038 

$$$$
5F-TRP.3D.capped.mmff94s.pdb
 OpenBabel09172212003D

 36 37  0  0  0  0  0  0  0  0999 V2000
    7.7476   -1.3477    3.1747 C   0  0  0  1  0  0  0  0  0  0  0  0
    7.3334   -3.3534    1.8563 N   0  0  0  1  0  0  0  0  0  0  0  0
    7.0171   -1.9400    1.9852 C   0  0  0  1  0  0  0  0  0  0  0  0
    5.5271   -1.7308    2.1196 C   0  0  0  1  0  0  0  0  0  0  0  0
    4.7956   -2.5669    3.1354 C   0  0  0  1  0  0  0  0  0  0  0  0
    4.0169   -3.6791    2.8793 C   0  0  0  1  0  0  0  0  0  0  0  0
    3.5215   -4.1415    4.0681 N   0  0  0  1  0  0  0  0  0  0  0  0
    3.9668   -3.3582    5.1063 C   0  0  0  1  0  0  0  0  0  0  0  0
    3.7152   -3.4592    6.4813 C   0  0  0  1  0  0  0  0  0  0  0  0
    4.3092   -2.5098    7.3165 C   0  0  0  1  0  0  0  0  0  0  0  0
    5.1157   -1.5114    6.7860 C   0  0  0  1  0  0  0  0  0  0  0  0
    5.3624   -1.4174    5.4160 C   0  0  0  1  0  0  0  0  0  0  0  0
    4.7733   -2.3619    4.5528 C   0  0  0  1  0  0  0  0  0  0  0  0
    7.6416   -1.8382    4.2980 O   0  0  0  1  0  0  0  0  0  0  0  0
    5.6747   -0.6100    7.6160 F   0  0  0  1  0  0  0  0  0  0  0  0
    7.9985   -3.8418    0.8090 C   0  0  0  1  0  0  0  0  0  0  0  0
    8.2924   -3.1637   -0.1719 O   0  0  0  1  0  0  0  0  0  0  0  0
    8.3795   -5.3069    0.8956 C   0  0  0  1  0  0  0  0  0  0  0  0
    8.5041   -0.2692    2.9165 N   0  0  0  1  0  0  0  0  0  0  0  0
    9.3119    0.3261    3.9706 C   0  0  0  1  0  0  0  0  0  0  0  0
    7.0478   -3.9684    2.5639 H   0  0  0  1  0  0  0  0  0  0  0  0
    7.3456   -1.4288    1.1045 H   0  0  0  1  0  0  0  0  0  0  0  0
    5.0883   -1.9309    1.1645 H   0  0  0  1  0  0  0  0  0  0  0  0
    5.3698   -0.7042    2.3769 H   0  0  0  1  0  0  0  0  0  0  0  0
    3.8379   -4.0941    1.9426 H   0  0  0  1  0  0  0  0  0  0  0  0
    2.9335   -4.9194    4.1654 H   0  0  0  1  0  0  0  0  0  0  0  0
    3.1093   -4.2123    6.8653 H   0  0  0  1  0  0  0  0  0  0  0  0
    4.1462   -2.5510    8.3428 H   0  0  0  1  0  0  0  0  0  0  0  0
    5.9707   -0.6630    5.0386 H   0  0  0  1  0  0  0  0  0  0  0  0
    8.3848   -5.6146    1.9203 H   0  0  0  1  0  0  0  0  0  0  0  0
    9.3540   -5.4471    0.4763 H   0  0  0  1  0  0  0  0  0  0  0  0
    7.6688   -5.8928    0.3511 H   0  0  0  1  0  0  0  0  0  0  0  0
    8.5125    0.1180    2.0163 H   0  0  0  1  0  0  0  0  0  0  0  0
    8.7068    0.4824    4.8391 H   0  0  0  1  0  0  0  0  0  0  0  0
    9.7017    1.2641    3.6342 H   0  0  0  1  0  0  0  0  0  0  0  0
   10.1210   -0.3306    4.2135 H   0  0  0  1  0  0  0  0  0  0  0  0
  1  3  1  0  0  0  0
  1 14  2  0  0  0  0
  1 19  1  0  0  0  0
  2  3  1  0  0  0  0
  2 16  1  0  0  0  0
  2 21  1  0  0  0  0
  3  4  1  0  0  0  0
  3 22  1  0  0  0  0
  4  5  1  0  0  0  0
  4 23  1  0  0  0  0
  4 24  1  0  0  0  0
  5  6  4  0  0  0  0
  5 13  4  0  0  0  0
  6  7  4  0  0  0  0
  6 25  1  0  0  0  0
  7  8  4  0  0  0  0
  7 26  1  0  0  0  0
  8  9  4  0  0  0  0
  8 13  4  0  0  0  0
  9 10  4  0  0  0  0
  9 27  1  0  0  0  0
 10 11  4  0  0  0  0
 10 28  1  0  0  0  0
 11 12  4  0  0  0  0
 11 15  1  0  0  0  0
 12 13  4  0  0  0  0
 12 29  1  0  0  0  0
 16 17  2  0  0  0  0
 16 18  1  0  0  0  0
 18 30  1  0  0  0  0
 18 31  1  0  0  0  0
 18 32  1  0  0  0  0
 19 20  1  0  0  0  0
 19 33  1  0  0  0  0
 20 34  1  0  0  0  0
 20 35  1  0  0  0  0
 20 36  1  0  0  0  0
M  END
> <ConfClashScore>
0 

> <ConfOneFourInteractionScore>
-0.976093 

> <ConfScore>
0.683505 

> <ConfScorePBest>
0.00593146 

> <ConfTolerance>
0.907223 

$$$$
5F-TRP.3D.capped.mmff94s.pdb
 OpenBabel09172212003D

 36 37  0  0  0  0  0  0  0  0999 V2000
    7.4030   -1.5452    0.4946 C   0  0  0  1  0  0  0  0  0  0  0  0
    7.7479   -2.6135    2.7370 N   0  0  0  1  0  0  0  0  0  0  0  0
    6.8271   -2.3773    1.6352 C   0  0  0  1  0  0  0  0  0  0  0  0
    5.5271   -1.7308    2.1196 C   0  0  0  1  0  0  0  0  0  0  0  0
    4.7956   -2.5669    3.1354 C   0  0  0  1  0  0  0  0  0  0  0  0
    4.0169   -3.6791    2.8793 C   0  0  0  1  0  0  0  0  0  0  0  0
    3.5215   -4.1415    4.0681 N   0  0  0  1  0  0  0  0  0  0  0  0
    3.9668   -3.3582    5.1063 C   0  0  0  1  0  0  0  0  0  0  0  0
    3.7152   -3.4592    6.4813 C   0  0  0  1  0  0  0  0  0  0  0  0
    4.3092   -2.5098    7.3165 C   0  0  0  1  0  0  0  0  0  0  0  0
    5.1157   -1.5114    6.7860 C   0  0  0  1  0  0  0  0  0  0  0  0
    5.3624   -1.4174    5.4160 C   0  0  0  1  0  0  0  0  0  0  0  0
    4.7733   -2.3619    4.5528 C   0  0  0  1  0  0  0  0  0  0  0  0
    6.6871   -0.8167   -0.1875 O   0  0  0  1  0  0  0  0  0  0  0  0
    5.6747   -0.6100    7.6160 F   0  0  0  1  0  0  0  0  0  0  0  0
    8.4482   -1.6562    3.3461 C   0  0  0  1  0  0  0  0  0  0  0  0
    8.2693   -0.4634    3.1624 O   0  0  0  1  0  0  0  0  0  0  0  0
    9.4522   -2.1502    4.3851 C   0  0  0  1  0  0  0  0  0  0  0  0
    8.7187   -1.6649    0.2958 N   0  0  0  1  0  0  0  0  0  0  0  0
    9.4528   -0.7839   -0.6002 C   0  0  0  1  0  0  0  0  0  0  0  0
    7.8606   -3.5349    3.0514 H   0  0  0  1  0  0  0  0  0  0  0  0
    6.5636   -3.3288    1.2224 H   0  0  0  1  0  0  0  0  0  0  0  0
    4.8860   -1.5816    1.2761 H   0  0  0  1  0  0  0  0  0  0  0  0
    5.7613   -0.7851    2.5620 H   0  0  0  1  0  0  0  0  0  0  0  0
    3.8379   -4.0941    1.9426 H   0  0  0  1  0  0  0  0  0  0  0  0
    2.9335   -4.9194    4.1654 H   0  0  0  1  0  0  0  0  0  0  0  0
    3.1093   -4.2123    6.8653 H   0  0  0  1  0  0  0  0  0  0  0  0
    4.1462   -2.5510    8.3428 H   0  0  0  1  0  0  0  0  0  0  0  0
    5.9707   -0.6630    5.0386 H   0  0  0  1  0  0  0  0  0  0  0  0
    9.5005   -3.2187    4.3553 H   0  0  0  1  0  0  0  0  0  0  0  0
    9.1415   -1.8346    5.3592 H   0  0  0  1  0  0  0  0  0  0  0  0
   10.4180   -1.7435    4.1690 H   0  0  0  1  0  0  0  0  0  0  0  0
    9.2064   -2.3705    0.7698 H   0  0  0  1  0  0  0  0  0  0  0  0
    9.0635   -0.8784   -1.5923 H   0  0  0  1  0  0  0  0  0  0  0  0
   10.4882   -1.0539   -0.5964 H   0  0  0  1  0  0  0  0  0  0  0  0
    9.3466    0.2286   -0.2706 H   0  0  0  1  0  0  0  0  0  0  0  0
  1  3  1  0  0  0  0
  1 14  2  0  0  0  0
  1 19  1  0  0  0  0
  2  3  1  0  0  0  0
  2 16  1  0  0  0  0
  2 21  1  0  0  0  0
  3  4  1  0  0  0  0
  3 22  1  0  0  0  0
  4  5  1  0  0  0  0
  4 23  1  0  0  0  0
  4 24  1  0  0  0  0
  5  6  4  0  0  0  0
  5 13  4  0  0  0  0
  6  7  4  0  0  0  0
  6 25  1  0  0  0  0
  7  8  4  0  0  0  0
  7 26  1  0  0  0  0
  8  9  4  0  0  0  0
  8 13  4  0  0  0  0
  9 10  4  0  0  0  0
  9 27  1  0  0  0  0
 10 11  4  0  0  0  0
 10 28  1  0  0  0  0
 11 12  4  0  0  0  0
 11 15  1  0  0  0  0
 12 13  4  0  0  0  0
 12 29  1  0  0  0  0
 16 17  2  0  0  0  0
 16 18  1  0  0  0  0
 18 30  1  0  0  0  0
 18 31  1  0  0  0  0
 18 32  1  0  0  0  0
 19 20  1  0  0  0  0
 19 33  1  0  0  0  0
 20 34  1  0  0  0  0
 20 35  1  0  0  0  0
 20 36  1  0  0  0  0
M  END
> <ConfClashScore>
0 

> <ConfOneFourInteractionScore>
-0.953489 

> <ConfScore>
0.687639 

> <ConfScorePBest>
0.00582846 

> <ConfTolerance>
0.77203 

$$$$
5F-TRP.3D.capped.mmff94s.pdb
 OpenBabel09172212003D

 36 37  0  0  0  0  0  0  0  0999 V2000
    6.1399   -1.3212   -0.2871 C   0  0  0  1  0  0  0  0  0  0  0  0
    6.4051   -3.5577    0.7340 N   0  0  0  1  0  0  0  0  0  0  0  0
    5.6192   -2.3331    0.7150 C   0  0  0  1  0  0  0  0  0  0  0  0
    5.5497   -1.7367    2.1147 C   0  0  0  1  0  0  0  0  0  0  0  0
    4.8051   -2.5695    3.1398 C   0  0  0  1  0  0  0  0  0  0  0  0
    4.0263   -3.6629    2.8994 C   0  0  0  1  0  0  0  0  0  0  0  0
    3.5055   -4.1409    4.0746 N   0  0  0  1  0  0  0  0  0  0  0  0
    3.9586   -3.3705    5.1103 C   0  0  0  1  0  0  0  0  0  0  0  0
    3.7217   -3.4625    6.4846 C   0  0  0  1  0  0  0  0  0  0  0  0
    4.3138   -2.5195    7.2963 C   0  0  0  1  0  0  0  0  0  0  0  0
    5.1132   -1.5089    6.7712 C   0  0  0  1  0  0  0  0  0  0  0  0
    5.3523   -1.4206    5.4176 C   0  0  0  1  0  0  0  0  0  0  0  0
    4.7763   -2.3671    4.5634 C   0  0  0  1  0  0  0  0  0  0  0  0
    5.7720   -0.1498   -0.2598 O   0  0  0  1  0  0  0  0  0  0  0  0
    5.6626   -0.6014    7.6009 F   0  0  0  1  0  0  0  0  0  0  0  0
    5.8415   -4.8032    0.5025 C   0  0  0  1  0  0  0  0  0  0  0  0
    4.6426   -4.8715    0.3018 O   0  0  0  1  0  0  0  0  0  0  0  0
    6.7266   -6.0179    0.5077 C   0  0  0  1  0  0  0  0  0  0  0  0
    7.0160   -1.7914   -1.1890 N   0  0  0  1  0  0  0  0  0  0  0  0
    7.5711   -0.9552   -2.2428 C   0  0  0  1  0  0  0  0  0  0  0  0
    7.3662   -3.5001    0.9167 H   0  0  0  1  0  0  0  0  0  0  0  0
    4.6198   -2.5835    0.4261 H   0  0  0  1  0  0  0  0  0  0  0  0
    5.0628   -0.7865    2.0448 H   0  0  0  1  0  0  0  0  0  0  0  0
    6.5513   -1.5999    2.4653 H   0  0  0  1  0  0  0  0  0  0  0  0
    3.8525   -4.0749    1.9605 H   0  0  0  1  0  0  0  0  0  0  0  0
    2.9050   -4.9108    4.1589 H   0  0  0  1  0  0  0  0  0  0  0  0
    3.1213   -4.2142    6.8797 H   0  0  0  1  0  0  0  0  0  0  0  0
    4.1598   -2.5640    8.3239 H   0  0  0  1  0  0  0  0  0  0  0  0
    5.9522   -0.6615    5.0362 H   0  0  0  1  0  0  0  0  0  0  0  0
    7.2043   -6.1077    1.4609 H   0  0  0  1  0  0  0  0  0  0  0  0
    7.4699   -5.9205   -0.2558 H   0  0  0  1  0  0  0  0  0  0  0  0
    6.1356   -6.8903    0.3216 H   0  0  0  1  0  0  0  0  0  0  0  0
    7.2914   -2.7304   -1.1359 H   0  0  0  1  0  0  0  0  0  0  0  0
    7.7546   -1.5512   -3.1123 H   0  0  0  1  0  0  0  0  0  0  0  0
    8.4901   -0.5220   -1.9072 H   0  0  0  1  0  0  0  0  0  0  0  0
    6.8767   -0.1776   -2.4837 H   0  0  0  1  0  0  0  0  0  0  0  0
  1  3  1  0  0  0  0
  1 14  2  0  0  0  0
  1 19  1  0  0  0  0
  2  3  1  0  0  0  0
  2 16  1  0  0  0  0
  2 21  1  0  0  0  0
  3  4  1  0  0  0  0
  3 22  1  0  0  0  0
  4  5  1  0  0  0  0
  4 23  1  0  0  0  0
  4 24  1  0  0  0  0
  5  6  4  0  0  0  0
  5 13  4  0  0  0  0
  6  7  4  0  0  0  0
  6 25  1  0  0  0  0
  7  8  4  0  0  0  0
  7 26  1  0  0  0  0
  8  9  4  0  0  0  0
  8 13  4  0  0  0  0
  9 10  4  0  0  0  0
  9 27  1  0  0  0  0
 10 11  4  0  0  0  0
 10 28  1  0  0  0  0
 11 12  4  0  0  0  0
 11 15  1  0  0  0  0
 12 13  4  0  0  0  0
 12 29  1  0  0  0  0
 16 17  2  0  0  0  0
 16 18  1  0  0  0  0
 18 30  1  0  0  0  0
 18 31  1  0  0  0  0
 18 32  1  0  0  0  0
 19 20  1  0  0  0  0
 19 33  1  0  0  0  0
 20 34  1  0  0  0  0
 20 35  1  0  0  0  0
 20 36  1  0  0  0  0
M  END
> <ConfClashScore>
0 

> <ConfOneFourInteractionScore>
-0.953697 

> <ConfScore>
0.69752 

> <ConfScorePBest>
0.00572546 

> <ConfTolerance>
1.05988 

$$$$
5F-TRP.3D.capped.mmff94s.pdb
 OpenBabel09172212003D

 36 37  0  0  0  0  0  0  0  0999 V2000
    5.4830    0.2970    0.5333 C   0  0  0  1  0  0  0  0  0  0  0  0
    3.4063   -0.8727    1.2080 N   0  0  0  1  0  0  0  0  0  0  0  0
    4.7772   -0.5059    1.6223 C   0  0  0  1  0  0  0  0  0  0  0  0
    5.5271   -1.7308    2.1196 C   0  0  0  1  0  0  0  0  0  0  0  0
    4.7956   -2.5669    3.1354 C   0  0  0  1  0  0  0  0  0  0  0  0
    4.0169   -3.6791    2.8793 C   0  0  0  1  0  0  0  0  0  0  0  0
    3.5215   -4.1415    4.0681 N   0  0  0  1  0  0  0  0  0  0  0  0
    3.9668   -3.3582    5.1063 C   0  0  0  1  0  0  0  0  0  0  0  0
    3.7152   -3.4592    6.4813 C   0  0  0  1  0  0  0  0  0  0  0  0
    4.3092   -2.5098    7.3165 C   0  0  0  1  0  0  0  0  0  0  0  0
    5.1157   -1.5114    6.7860 C   0  0  0  1  0  0  0  0  0  0  0  0
    5.3624   -1.4174    5.4160 C   0  0  0  1  0  0  0  0  0  0  0  0
    4.7733   -2.3619    4.5528 C   0  0  0  1  0  0  0  0  0  0  0  0
    6.0987   -0.2602   -0.3716 O   0  0  0  1  0  0  0  0  0  0  0  0
    5.6747   -0.6100    7.6160 F   0  0  0  1  0  0  0  0  0  0  0  0
    2.3132   -0.3057    1.7548 C   0  0  0  1  0  0  0  0  0  0  0  0
    2.3330    0.4985    2.6857 O   0  0  0  1  0  0  0  0  0  0  0  0
    1.0060   -0.7507    1.1117 C   0  0  0  1  0  0  0  0  0  0  0  0
    5.3830    1.6318    0.6354 N   0  0  0  1  0  0  0  0  0  0  0  0
    5.8613    2.5816   -0.3581 C   0  0  0  1  0  0  0  0  0  0  0  0
    3.2884   -1.5518    0.5114 H   0  0  0  1  0  0  0  0  0  0  0  0
    4.6811    0.1494    2.4626 H   0  0  0  1  0  0  0  0  0  0  0  0
    6.4431   -1.3997    2.5626 H   0  0  0  1  0  0  0  0  0  0  0  0
    5.7427   -2.3513    1.2750 H   0  0  0  1  0  0  0  0  0  0  0  0
    3.8379   -4.0941    1.9426 H   0  0  0  1  0  0  0  0  0  0  0  0
    2.9335   -4.9194    4.1654 H   0  0  0  1  0  0  0  0  0  0  0  0
    3.1093   -4.2123    6.8653 H   0  0  0  1  0  0  0  0  0  0  0  0
    4.1462   -2.5510    8.3428 H   0  0  0  1  0  0  0  0  0  0  0  0
    5.9707   -0.6630    5.0386 H   0  0  0  1  0  0  0  0  0  0  0  0
    0.2861    0.0377    1.1834 H   0  0  0  1  0  0  0  0  0  0  0  0
    0.6366   -1.6178    1.6182 H   0  0  0  1  0  0  0  0  0  0  0  0
    1.1770   -0.9845    0.0817 H   0  0  0  1  0  0  0  0  0  0  0  0
    4.9558    1.9940    1.4396 H   0  0  0  1  0  0  0  0  0  0  0  0
    5.7057    2.1818   -1.3384 H   0  0  0  1  0  0  0  0  0  0  0  0
    6.9056    2.7595   -0.2074 H   0  0  0  1  0  0  0  0  0  0  0  0
    5.3243    3.5018   -0.2591 H   0  0  0  1  0  0  0  0  0  0  0  0
  1  3  1  0  0  0  0
  1 14  2  0  0  0  0
  1 19  1  0  0  0  0
  2  3  1  0  0  0  0
  2 16  1  0  0  0  0
  2 21  1  0  0  0  0
  3  4  1  0  0  0  0
  3 22  1  0  0  0  0
  4  5  1  0  0  0  0
  4 23  1  0  0  0  0
  4 24  1  0  0  0  0
  5  6  4  0  0  0  0
  5 13  4  0  0  0  0
  6  7  4  0  0  0  0
  6 25  1  0  0  0  0
  7  8  4  0  0  0  0
  7 26  1  0  0  0  0
  8  9  4  0  0  0  0
  8 13  4  0  0  0  0
  9 10  4  0  0  0  0
  9 27  1  0  0  0  0
 10 11  4  0  0  0  0
 10 28  1  0  0  0  0
 11 12  4  0  0  0  0
 11 15  1  0  0  0  0
 12 13  4  0  0  0  0
 12 29  1  0  0  0  0
 16 17  2  0  0  0  0
 16 18  1  0  0  0  0
 18 30  1  0  0  0  0
 18 31  1  0  0  0  0
 18 32  1  0  0  0  0
 19 20  1  0  0  0  0
 19 33  1  0  0  0  0
 20 34  1  0  0  0  0
 20 35  1  0  0  0  0
 20 36  1  0  0  0  0
M  END
> <ConfClashScore>
0 

> <ConfOneFourInteractionScore>
-0.979134 

> <ConfScore>
0.703979 

> <ConfScorePBest>
0.00562246 

> <ConfTolerance>
1.24416 

$$$$
5F-TRP.3D.capped.mmff94s.pdb
 OpenBabel09172212003D

 36 37  0  0  0  0  0  0  0  0999 V2000
    7.7146   -2.9710    2.3802 C   0  0  0  1  0  0  0  0  0  0  0  0
    6.1388   -3.5978    0.6013 N   0  0  0  1  0  0  0  0  0  0  0  0
    6.6448   -2.4967    1.4050 C   0  0  0  1  0  0  0  0  0  0  0  0
    5.5271   -1.7308    2.1196 C   0  0  0  1  0  0  0  0  0  0  0  0
    4.7956   -2.5669    3.1354 C   0  0  0  1  0  0  0  0  0  0  0  0
    4.0169   -3.6791    2.8793 C   0  0  0  1  0  0  0  0  0  0  0  0
    3.5215   -4.1415    4.0681 N   0  0  0  1  0  0  0  0  0  0  0  0
    3.9668   -3.3582    5.1063 C   0  0  0  1  0  0  0  0  0  0  0  0
    3.7152   -3.4592    6.4813 C   0  0  0  1  0  0  0  0  0  0  0  0
    4.3092   -2.5098    7.3165 C   0  0  0  1  0  0  0  0  0  0  0  0
    5.1157   -1.5114    6.7860 C   0  0  0  1  0  0  0  0  0  0  0  0
    5.3624   -1.4174    5.4160 C   0  0  0  1  0  0  0  0  0  0  0  0
    4.7733   -2.3619    4.5528 C   0  0  0  1  0  0  0  0  0  0  0  0
    7.7576   -4.1397    2.7619 O   0  0  0  1  0  0  0  0  0  0  0  0
    5.6747   -0.6100    7.6160 F   0  0  0  1  0  0  0  0  0  0  0  0
    5.5401   -3.4037   -0.5899 C   0  0  0  1  0  0  0  0  0  0  0  0
    5.3684   -2.3142   -1.1114 O   0  0  0  1  0  0  0  0  0  0  0  0
    5.0754   -4.6978   -1.2633 C   0  0  0  1  0  0  0  0  0  0  0  0
    8.5848   -2.0432    2.7819 N   0  0  0  1  0  0  0  0  0  0  0  0
    9.6470   -2.2619    3.7524 C   0  0  0  1  0  0  0  0  0  0  0  0
    6.2365   -4.5130    0.9380 H   0  0  0  1  0  0  0  0  0  0  0  0
    7.1173   -1.8026    0.7417 H   0  0  0  1  0  0  0  0  0  0  0  0
    4.8242   -1.3922    1.3874 H   0  0  0  1  0  0  0  0  0  0  0  0
    5.9572   -0.8876    2.6186 H   0  0  0  1  0  0  0  0  0  0  0  0
    3.8379   -4.0941    1.9426 H   0  0  0  1  0  0  0  0  0  0  0  0
    2.9335   -4.9194    4.1654 H   0  0  0  1  0  0  0  0  0  0  0  0
    3.1093   -4.2123    6.8653 H   0  0  0  1  0  0  0  0  0  0  0  0
    4.1462   -2.5510    8.3428 H   0  0  0  1  0  0  0  0  0  0  0  0
    5.9707   -0.6630    5.0386 H   0  0  0  1  0  0  0  0  0  0  0  0
    4.1015   -4.9575   -0.9042 H   0  0  0  1  0  0  0  0  0  0  0  0
    5.7619   -5.4857   -1.0332 H   0  0  0  1  0  0  0  0  0  0  0  0
    5.0381   -4.5547   -2.3230 H   0  0  0  1  0  0  0  0  0  0  0  0
    8.5027   -1.1469    2.3944 H   0  0  0  1  0  0  0  0  0  0  0  0
    9.6637   -3.2931    4.0374 H   0  0  0  1  0  0  0  0  0  0  0  0
    9.4705   -1.6562    4.6166 H   0  0  0  1  0  0  0  0  0  0  0  0
   10.5878   -1.9972    3.3168 H   0  0  0  1  0  0  0  0  0  0  0  0
  1  3  1  0  0  0  0
  1 14  2  0  0  0  0
  1 19  1  0  0  0  0
  2  3  1  0  0  0  0
  2 16  1  0  0  0  0
  2 21  1  0  0  0  0
  3  4  1  0  0  0  0
  3 22  1  0  0  0  0
  4  5  1  0  0  0  0
  4 23  1  0  0  0  0
  4 24  1  0  0  0  0
  5  6  4  0  0  0  0
  5 13  4  0  0  0  0
  6  7  4  0  0  0  0
  6 25  1  0  0  0  0
  7  8  4  0  0  0  0
  7 26  1  0  0  0  0
  8  9  4  0  0  0  0
  8 13  4  0  0  0  0
  9 10  4  0  0  0  0
  9 27  1  0  0  0  0
 10 11  4  0  0  0  0
 10 28  1  0  0  0  0
 11 12  4  0  0  0  0
 11 15  1  0  0  0  0
 12 13  4  0  0  0  0
 12 29  1  0  0  0  0
 16 17  2  0  0  0  0
 16 18  1  0  0  0  0
 18 30  1  0  0  0  0
 18 31  1  0  0  0  0
 18 32  1  0  0  0  0
 19 20  1  0  0  0  0
 19 33  1  0  0  0  0
 20 34  1  0  0  0  0
 20 35  1  0  0  0  0
 20 36  1  0  0  0  0
M  END
> <ConfClashScore>
0 

> <ConfOneFourInteractionScore>
-0.987258 

> <ConfScore>
0.715913 

> <ConfScorePBest>
0.00551946 

> <ConfTolerance>
1.12373 

$$$$
5F-TRP.3D.capped.mmff94s.pdb
 OpenBabel09172212003D

 36 37  0  0  0  0  0  0  0  0999 V2000
    5.5198    0.1795    0.5470 C   0  0  0  1  0  0  0  0  0  0  0  0
    3.6920   -1.4506    0.5573 N   0  0  0  1  0  0  0  0  0  0  0  0
    4.6533   -0.7414    1.3897 C   0  0  0  1  0  0  0  0  0  0  0  0
    5.5497   -1.7367    2.1147 C   0  0  0  1  0  0  0  0  0  0  0  0
    4.8051   -2.5695    3.1398 C   0  0  0  1  0  0  0  0  0  0  0  0
    4.0263   -3.6629    2.8994 C   0  0  0  1  0  0  0  0  0  0  0  0
    3.5055   -4.1409    4.0746 N   0  0  0  1  0  0  0  0  0  0  0  0
    3.9586   -3.3705    5.1103 C   0  0  0  1  0  0  0  0  0  0  0  0
    3.7217   -3.4625    6.4846 C   0  0  0  1  0  0  0  0  0  0  0  0
    4.3138   -2.5195    7.2963 C   0  0  0  1  0  0  0  0  0  0  0  0
    5.1132   -1.5089    6.7712 C   0  0  0  1  0  0  0  0  0  0  0  0
    5.3523   -1.4206    5.4176 C   0  0  0  1  0  0  0  0  0  0  0  0
    4.7763   -2.3671    4.5634 C   0  0  0  1  0  0  0  0  0  0  0  0
    6.6011    0.5911    0.9592 O   0  0  0  1  0  0  0  0  0  0  0  0
    5.6626   -0.6014    7.6009 F   0  0  0  1  0  0  0  0  0  0  0  0
    4.1153   -2.1800   -0.4934 C   0  0  0  1  0  0  0  0  0  0  0  0
    5.2884   -2.2919   -0.8394 O   0  0  0  1  0  0  0  0  0  0  0  0
    2.9959   -2.8765   -1.2424 C   0  0  0  1  0  0  0  0  0  0  0  0
    5.0279    0.5024   -0.6526 N   0  0  0  1  0  0  0  0  0  0  0  0
    5.7688    1.3187   -1.6025 C   0  0  0  1  0  0  0  0  0  0  0  0
    2.7350   -1.3973    0.7617 H   0  0  0  1  0  0  0  0  0  0  0  0
    4.1343   -0.1549    2.1189 H   0  0  0  1  0  0  0  0  0  0  0  0
    6.3254   -1.1951    2.6145 H   0  0  0  1  0  0  0  0  0  0  0  0
    5.9829   -2.3949    1.3909 H   0  0  0  1  0  0  0  0  0  0  0  0
    3.8525   -4.0749    1.9605 H   0  0  0  1  0  0  0  0  0  0  0  0
    2.9050   -4.9108    4.1589 H   0  0  0  1  0  0  0  0  0  0  0  0
    3.1213   -4.2142    6.8797 H   0  0  0  1  0  0  0  0  0  0  0  0
    4.1598   -2.5640    8.3239 H   0  0  0  1  0  0  0  0  0  0  0  0
    5.9522   -0.6615    5.0362 H   0  0  0  1  0  0  0  0  0  0  0  0
    3.0077   -2.5704   -2.2676 H   0  0  0  1  0  0  0  0  0  0  0  0
    2.0561   -2.6145   -0.8030 H   0  0  0  1  0  0  0  0  0  0  0  0
    3.1340   -3.9360   -1.1852 H   0  0  0  1  0  0  0  0  0  0  0  0
    4.1372    0.1781   -0.9014 H   0  0  0  1  0  0  0  0  0  0  0  0
    6.8157    1.1217   -1.5025 H   0  0  0  1  0  0  0  0  0  0  0  0
    5.5805    2.3536   -1.4061 H   0  0  0  1  0  0  0  0  0  0  0  0
    5.4549    1.0812   -2.5975 H   0  0  0  1  0  0  0  0  0  0  0  0
  1  3  1  0  0  0  0
  1 14  2  0  0  0  0
  1 19  1  0  0  0  0
  2  3  1  0  0  0  0
  2 16  1  0  0  0  0
  2 21  1  0  0  0  0
  3  4  1  0  0  0  0
  3 22  1  0  0  0  0
  4  5  1  0  0  0  0
  4 23  1  0  0  0  0
  4 24  1  0  0  0  0
  5  6  4  0  0  0  0
  5 13  4  0  0  0  0
  6  7  4  0  0  0  0
  6 25  1  0  0  0  0
  7  8  4  0  0  0  0
  7 26  1  0  0  0  0
  8  9  4  0  0  0  0
  8 13  4  0  0  0  0
  9 10  4  0  0  0  0
  9 27  1  0  0  0  0
 10 11  4  0  0  0  0
 10 28  1  0  0  0  0
 11 12  4  0  0  0  0
 11 15  1  0  0  0  0
 12 13  4  0  0  0  0
 12 29  1  0  0  0  0
 16 17  2  0  0  0  0
 16 18  1  0  0  0  0
 18 30  1  0  0  0  0
 18 31  1  0  0  0  0
 18 32  1  0  0  0  0
 19 20  1  0  0  0  0
 19 33  1  0  0  0  0
 20 34  1  0  0  0  0
 20 35  1  0  0  0  0
 20 36  1  0  0  0  0
M  END
> <ConfClashScore>
0 

> <ConfOneFourInteractionScore>
-0.953489 

> <ConfScore>
0.716724 

> <ConfScorePBest>
0.00541646 

> <ConfTolerance>
1.60691 

$$$$
5F-TRP.3D.capped.mmff94s.pdb
 OpenBabel09172212003D

 36 37  0  0  0  0  0  0  0  0999 V2000
    7.6520   -1.5122    0.7659 C   0  0  0  1  0  0  0  0  0  0  0  0
    7.7005   -2.5572    2.9923 N   0  0  0  1  0  0  0  0  0  0  0  0
    6.8955   -2.3393    1.7996 C   0  0  0  1  0  0  0  0  0  0  0  0
    5.5271   -1.7308    2.1196 C   0  0  0  1  0  0  0  0  0  0  0  0
    4.7956   -2.5669    3.1354 C   0  0  0  1  0  0  0  0  0  0  0  0
    4.0169   -3.6791    2.8793 C   0  0  0  1  0  0  0  0  0  0  0  0
    3.5215   -4.1415    4.0681 N   0  0  0  1  0  0  0  0  0  0  0  0
    3.9668   -3.3582    5.1063 C   0  0  0  1  0  0  0  0  0  0  0  0
    3.7152   -3.4592    6.4813 C   0  0  0  1  0  0  0  0  0  0  0  0
    4.3092   -2.5098    7.3165 C   0  0  0  1  0  0  0  0  0  0  0  0
    5.1157   -1.5114    6.7860 C   0  0  0  1  0  0  0  0  0  0  0  0
    5.3624   -1.4174    5.4160 C   0  0  0  1  0  0  0  0  0  0  0  0
    4.7733   -2.3619    4.5528 C   0  0  0  1  0  0  0  0  0  0  0  0
    7.3831   -0.3267    0.5759 O   0  0  0  1  0  0  0  0  0  0  0  0
    5.6747   -0.6100    7.6160 F   0  0  0  1  0  0  0  0  0  0  0  0
    8.0881   -3.7786    3.3801 C   0  0  0  1  0  0  0  0  0  0  0  0
    7.9119   -4.7860    2.6961 O   0  0  0  1  0  0  0  0  0  0  0  0
    8.7688   -3.8550    4.7328 C   0  0  0  1  0  0  0  0  0  0  0  0
    8.6100   -2.1575    0.0945 N   0  0  0  1  0  0  0  0  0  0  0  0
    9.3700   -1.5266   -0.9743 C   0  0  0  1  0  0  0  0  0  0  0  0
    7.9680   -1.7830    3.5302 H   0  0  0  1  0  0  0  0  0  0  0  0
    6.7106   -3.2949    1.3551 H   0  0  0  1  0  0  0  0  0  0  0  0
    4.9465   -1.6816    1.2222 H   0  0  0  1  0  0  0  0  0  0  0  0
    5.6646   -0.7444    2.5106 H   0  0  0  1  0  0  0  0  0  0  0  0
    3.8379   -4.0941    1.9426 H   0  0  0  1  0  0  0  0  0  0  0  0
    2.9335   -4.9194    4.1654 H   0  0  0  1  0  0  0  0  0  0  0  0
    3.1093   -4.2123    6.8653 H   0  0  0  1  0  0  0  0  0  0  0  0
    4.1462   -2.5510    8.3428 H   0  0  0  1  0  0  0  0  0  0  0  0
    5.9707   -0.6630    5.0386 H   0  0  0  1  0  0  0  0  0  0  0  0
    8.3890   -4.6944    5.2769 H   0  0  0  1  0  0  0  0  0  0  0  0
    8.5739   -2.9571    5.2812 H   0  0  0  1  0  0  0  0  0  0  0  0
    9.8239   -3.9675    4.5950 H   0  0  0  1  0  0  0  0  0  0  0  0
    8.8078   -3.0880    0.3299 H   0  0  0  1  0  0  0  0  0  0  0  0
    8.6966   -1.1191   -1.6990 H   0  0  0  1  0  0  0  0  0  0  0  0
    9.9990   -2.2549   -1.4421 H   0  0  0  1  0  0  0  0  0  0  0  0
    9.9733   -0.7421   -0.5675 H   0  0  0  1  0  0  0  0  0  0  0  0
  1  3  1  0  0  0  0
  1 14  2  0  0  0  0
  1 19  1  0  0  0  0
  2  3  1  0  0  0  0
  2 16  1  0  0  0  0
  2 21  1  0  0  0  0
  3  4  1  0  0  0  0
  3 22  1  0  0  0  0
  4  5  1  0  0  0  0
  4 23  1  0  0  0  0
  4 24  1  0  0  0  0
  5  6  4  0  0  0  0
  5 13  4  0  0  0  0
  6  7  4  0  0  0  0
  6 25  1  0  0  0  0
  7  8  4  0  0  0  0
  7 26  1  0  0  0  0
  8  9  4  0  0  0  0
  8 13  4  0  0  0  0
  9 10  4  0  0  0  0
  9 27  1  0  0  0  0
 10 11  4  0  0  0  0
 10 28  1  0  0  0  0
 11 12  4  0  0  0  0
 11 15  1  0  0  0  0
 12 13  4  0  0  0  0
 12 29  1  0  0  0  0
 16 17  2  0  0  0  0
 16 18  1  0  0  0  0
 18 30  1  0  0  0  0
 18 31  1  0  0  0  0
 18 32  1  0  0  0  0
 19 20  1  0  0  0  0
 19 33  1  0  0  0  0
 20 34  1  0  0  0  0
 20 35  1  0  0  0  0
 20 36  1  0  0  0  0
M  END
> <ConfClashScore>
0 

> <ConfOneFourInteractionScore>
-0.979783 

> <ConfScore>
0.736961 

> <ConfScorePBest>
0.00531345 

> <ConfTolerance>
0.961449 

$$$$
5F-TRP.3D.capped.mmff94s.pdb
 OpenBabel09172212003D

 36 37  0  0  0  0  0  0  0  0999 V2000
    6.8471   -3.6156    1.2422 C   0  0  0  1  0  0  0  0  0  0  0  0
    7.6730   -1.3658    0.9270 N   0  0  0  1  0  0  0  0  0  0  0  0
    6.9471   -2.2159    1.8588 C   0  0  0  1  0  0  0  0  0  0  0  0
    5.5271   -1.7308    2.1196 C   0  0  0  1  0  0  0  0  0  0  0  0
    4.7956   -2.5669    3.1354 C   0  0  0  1  0  0  0  0  0  0  0  0
    4.0169   -3.6791    2.8793 C   0  0  0  1  0  0  0  0  0  0  0  0
    3.5215   -4.1415    4.0681 N   0  0  0  1  0  0  0  0  0  0  0  0
    3.9668   -3.3582    5.1063 C   0  0  0  1  0  0  0  0  0  0  0  0
    3.7152   -3.4592    6.4813 C   0  0  0  1  0  0  0  0  0  0  0  0
    4.3092   -2.5098    7.3165 C   0  0  0  1  0  0  0  0  0  0  0  0
    5.1157   -1.5114    6.7860 C   0  0  0  1  0  0  0  0  0  0  0  0
    5.3624   -1.4174    5.4160 C   0  0  0  1  0  0  0  0  0  0  0  0
    4.7733   -2.3619    4.5528 C   0  0  0  1  0  0  0  0  0  0  0  0
    6.1354   -4.5011    1.6774 O   0  0  0  1  0  0  0  0  0  0  0  0
    5.6747   -0.6100    7.6160 F   0  0  0  1  0  0  0  0  0  0  0  0
    8.6918   -0.5663    1.2556 C   0  0  0  1  0  0  0  0  0  0  0  0
    9.2407   -0.6148    2.3553 O   0  0  0  1  0  0  0  0  0  0  0  0
    9.0788    0.4847    0.2334 C   0  0  0  1  0  0  0  0  0  0  0  0
    7.6072   -3.8348    0.1585 N   0  0  0  1  0  0  0  0  0  0  0  0
    7.4696   -5.0740   -0.5920 C   0  0  0  1  0  0  0  0  0  0  0  0
    7.3935   -1.3808   -0.0121 H   0  0  0  1  0  0  0  0  0  0  0  0
    7.4717   -2.2782    2.7893 H   0  0  0  1  0  0  0  0  0  0  0  0
    4.9827   -1.7600    1.1989 H   0  0  0  1  0  0  0  0  0  0  0  0
    5.5717   -0.7230    2.4764 H   0  0  0  1  0  0  0  0  0  0  0  0
    3.8379   -4.0941    1.9426 H   0  0  0  1  0  0  0  0  0  0  0  0
    2.9335   -4.9194    4.1654 H   0  0  0  1  0  0  0  0  0  0  0  0
    3.1093   -4.2123    6.8653 H   0  0  0  1  0  0  0  0  0  0  0  0
    4.1462   -2.5510    8.3428 H   0  0  0  1  0  0  0  0  0  0  0  0
    5.9707   -0.6630    5.0386 H   0  0  0  1  0  0  0  0  0  0  0  0
    8.1954    0.9428   -0.1599 H   0  0  0  1  0  0  0  0  0  0  0  0
    9.6257    0.0236   -0.5624 H   0  0  0  1  0  0  0  0  0  0  0  0
    9.6885    1.2293    0.7011 H   0  0  0  1  0  0  0  0  0  0  0  0
    8.2563   -3.1590   -0.1283 H   0  0  0  1  0  0  0  0  0  0  0  0
    7.8139   -5.8929    0.0044 H   0  0  0  1  0  0  0  0  0  0  0  0
    8.0527   -5.0152   -1.4872 H   0  0  0  1  0  0  0  0  0  0  0  0
    6.4410   -5.2251   -0.8451 H   0  0  0  1  0  0  0  0  0  0  0  0
  1  3  1  0  0  0  0
  1 14  2  0  0  0  0
  1 19  1  0  0  0  0
  2  3  1  0  0  0  0
  2 16  1  0  0  0  0
  2 21  1  0  0  0  0
  3  4  1  0  0  0  0
  3 22  1  0  0  0  0
  4  5  1  0  0  0  0
  4 23  1  0  0  0  0
  4 24  1  0  0  0  0
  5  6  4  0  0  0  0
  5 13  4  0  0  0  0
  6  7  4  0  0  0  0
  6 25  1  0  0  0  0
  7  8  4  0  0  0  0
  7 26  1  0  0  0  0
  8  9  4  0  0  0  0
  8 13  4  0  0  0  0
  9 10  4  0  0  0  0
  9 27  1  0  0  0  0
 10 11  4  0  0  0  0
 10 28  1  0  0  0  0
 11 12  4  0  0  0  0
 11 15  1  0  0  0  0
 12 13  4  0  0  0  0
 12 29  1  0  0  0  0
 16 17  2  0  0  0  0
 16 18  1  0  0  0  0
 18 30  1  0  0  0  0
 18 31  1  0  0  0  0
 18 32  1  0  0  0  0
 19 20  1  0  0  0  0
 19 33  1  0  0  0  0
 20 34  1  0  0  0  0
 20 35  1  0  0  0  0
 20 36  1  0  0  0  0
M  END
> <ConfClashScore>
0 

> <ConfOneFourInteractionScore>
-0.946346 

> <ConfScore>
0.765976 

> <ConfScorePBest>
0.00521045 

> <ConfTolerance>
1.07913 

$$$$
5F-TRP.3D.capped.mmff94s.pdb
 OpenBabel09172212003D

 36 37  0  0  0  0  0  0  0  0999 V2000
    6.8510   -3.9199    1.9358 C   0  0  0  1  0  0  0  0  0  0  0  0
    6.7875   -2.3657    0.0870 N   0  0  0  1  0  0  0  0  0  0  0  0
    6.7663   -2.4589    1.5392 C   0  0  0  1  0  0  0  0  0  0  0  0
    5.5449   -1.7420    2.1218 C   0  0  0  1  0  0  0  0  0  0  0  0
    4.8055   -2.5689    3.1393 C   0  0  0  1  0  0  0  0  0  0  0  0
    4.0269   -3.6623    2.8989 C   0  0  0  1  0  0  0  0  0  0  0  0
    3.5059   -4.1405    4.0739 N   0  0  0  1  0  0  0  0  0  0  0  0
    3.9589   -3.3701    5.1097 C   0  0  0  1  0  0  0  0  0  0  0  0
    3.7219   -3.4623    6.4840 C   0  0  0  1  0  0  0  0  0  0  0  0
    4.3140   -2.5193    7.2958 C   0  0  0  1  0  0  0  0  0  0  0  0
    5.1134   -1.5087    6.7710 C   0  0  0  1  0  0  0  0  0  0  0  0
    5.3526   -1.4202    5.4174 C   0  0  0  1  0  0  0  0  0  0  0  0
    4.7766   -2.3667    4.5630 C   0  0  0  1  0  0  0  0  0  0  0  0
    7.2674   -4.2494    3.0456 O   0  0  0  1  0  0  0  0  0  0  0  0
    5.6627   -0.6012    7.6008 F   0  0  0  1  0  0  0  0  0  0  0  0
    7.7301   -2.9570   -0.6524 C   0  0  0  1  0  0  0  0  0  0  0  0
    8.6896   -3.5341   -0.1679 O   0  0  0  1  0  0  0  0  0  0  0  0
    7.5398   -2.8707   -2.1542 C   0  0  0  1  0  0  0  0  0  0  0  0
    6.4588   -4.8405    1.0410 N   0  0  0  1  0  0  0  0  0  0  0  0
    6.3621   -6.2545    1.3718 C   0  0  0  1  0  0  0  0  0  0  0  0
    6.0859   -1.8513   -0.3642 H   0  0  0  1  0  0  0  0  0  0  0  0
    7.6375   -1.9690    1.9211 H   0  0  0  1  0  0  0  0  0  0  0  0
    4.8743   -1.5068    1.3218 H   0  0  0  1  0  0  0  0  0  0  0  0
    5.8724   -0.8377    2.5908 H   0  0  0  1  0  0  0  0  0  0  0  0
    3.8531   -4.0742    1.9598 H   0  0  0  1  0  0  0  0  0  0  0  0
    2.9055   -4.9104    4.1581 H   0  0  0  1  0  0  0  0  0  0  0  0
    3.1215   -4.2141    6.8790 H   0  0  0  1  0  0  0  0  0  0  0  0
    4.1599   -2.5640    8.3234 H   0  0  0  1  0  0  0  0  0  0  0  0
    5.9526   -0.6611    5.0361 H   0  0  0  1  0  0  0  0  0  0  0  0
    6.5094   -3.0316   -2.3935 H   0  0  0  1  0  0  0  0  0  0  0  0
    8.1377   -3.6180   -2.6328 H   0  0  0  1  0  0  0  0  0  0  0  0
    7.8380   -1.9017   -2.4962 H   0  0  0  1  0  0  0  0  0  0  0  0
    6.2295   -4.5504    0.1334 H   0  0  0  1  0  0  0  0  0  0  0  0
    6.7523   -6.8377    0.5640 H   0  0  0  1  0  0  0  0  0  0  0  0
    5.3368   -6.5130    1.5352 H   0  0  0  1  0  0  0  0  0  0  0  0
    6.9262   -6.4522    2.2592 H   0  0  0  1  0  0  0  0  0  0  0  0
  1  3  1  0  0  0  0
  1 14  2  0  0  0  0
  1 19  1  0  0  0  0
  2  3  1  0  0  0  0
  2 16  1  0  0  0  0
  2 21  1  0  0  0  0
  3  4  1  0  0  0  0
  3 22  1  0  0  0  0
  4  5  1  0  0  0  0
  4 23  1  0  0  0  0
  4 24  1  0  0  0  0
  5  6  4  0  0  0  0
  5 13  4  0  0  0  0
  6  7  4  0  0  0  0
  6 25  1  0  0  0  0
  7  8  4  0  0  0  0
  7 26  1  0  0  0  0
  8  9  4  0  0  0  0
  8 13  4  0  0  0  0
  9 10  4  0  0  0  0
  9 27  1  0  0  0  0
 10 11  4  0  0  0  0
 10 28  1  0  0  0  0
 11 12  4  0  0  0  0
 11 15  1  0  0  0  0
 12 13  4  0  0  0  0
 12 29  1  0  0  0  0
 16 17  2  0  0  0  0
 16 18  1  0  0  0  0
 18 30  1  0  0  0  0
 18 31  1  0  0  0  0
 18 32  1  0  0  0  0
 19 20  1  0  0  0  0
 19 33  1  0  0  0  0
 20 34  1  0  0  0  0
 20 35  1  0  0  0  0
 20 36  1  0  0  0  0
M  END
> <ConfClashScore>
0 

> <ConfOneFourInteractionScore>
-0.942345 

> <ConfScore>
0.772178 

> <ConfScorePBest>
0.00510745 

> <ConfTolerance>
1.74436 

$$$$
5F-TRP.3D.capped.mmff94s.pdb
 OpenBabel09172212003D

 36 37  0  0  0  0  0  0  0  0999 V2000
    7.1170   -2.1526    0.2598 C   0  0  0  1  0  0  0  0  0  0  0  0
    8.0023   -1.6998    2.4942 N   0  0  0  1  0  0  0  0  0  0  0  0
    6.9078   -2.3183    1.7611 C   0  0  0  1  0  0  0  0  0  0  0  0
    5.5449   -1.7420    2.1218 C   0  0  0  1  0  0  0  0  0  0  0  0
    4.8055   -2.5689    3.1393 C   0  0  0  1  0  0  0  0  0  0  0  0
    4.0269   -3.6623    2.8989 C   0  0  0  1  0  0  0  0  0  0  0  0
    3.5059   -4.1405    4.0739 N   0  0  0  1  0  0  0  0  0  0  0  0
    3.9589   -3.3701    5.1097 C   0  0  0  1  0  0  0  0  0  0  0  0
    3.7219   -3.4623    6.4840 C   0  0  0  1  0  0  0  0  0  0  0  0
    4.3140   -2.5193    7.2958 C   0  0  0  1  0  0  0  0  0  0  0  0
    5.1134   -1.5087    6.7710 C   0  0  0  1  0  0  0  0  0  0  0  0
    5.3526   -1.4202    5.4174 C   0  0  0  1  0  0  0  0  0  0  0  0
    4.7766   -2.3667    4.5630 C   0  0  0  1  0  0  0  0  0  0  0  0
    7.5092   -1.0922   -0.2230 O   0  0  0  1  0  0  0  0  0  0  0  0
    5.6627   -0.6012    7.6008 F   0  0  0  1  0  0  0  0  0  0  0  0
    9.2089   -2.2335    2.7671 C   0  0  0  1  0  0  0  0  0  0  0  0
    9.4811   -3.4152    2.5595 O   0  0  0  1  0  0  0  0  0  0  0  0
   10.2373   -1.2773    3.3575 C   0  0  0  1  0  0  0  0  0  0  0  0
    6.8332   -3.2608   -0.4520 N   0  0  0  1  0  0  0  0  0  0  0  0
    6.9687   -3.4477   -1.8985 C   0  0  0  1  0  0  0  0  0  0  0  0
    7.8436   -0.7919    2.8273 H   0  0  0  1  0  0  0  0  0  0  0  0
    6.8911   -3.3655    1.9800 H   0  0  0  1  0  0  0  0  0  0  0  0
    4.9524   -1.6865    1.2325 H   0  0  0  1  0  0  0  0  0  0  0  0
    5.6854   -0.7585    2.5193 H   0  0  0  1  0  0  0  0  0  0  0  0
    3.8531   -4.0742    1.9598 H   0  0  0  1  0  0  0  0  0  0  0  0
    2.9055   -4.9104    4.1581 H   0  0  0  1  0  0  0  0  0  0  0  0
    3.1215   -4.2141    6.8790 H   0  0  0  1  0  0  0  0  0  0  0  0
    4.1599   -2.5640    8.3234 H   0  0  0  1  0  0  0  0  0  0  0  0
    5.9526   -0.6611    5.0361 H   0  0  0  1  0  0  0  0  0  0  0  0
   11.2019   -1.7401    3.3484 H   0  0  0  1  0  0  0  0  0  0  0  0
    9.9657   -1.0393    4.3647 H   0  0  0  1  0  0  0  0  0  0  0  0
   10.2666   -0.3808    2.7741 H   0  0  0  1  0  0  0  0  0  0  0  0
    6.4980   -4.0291    0.0557 H   0  0  0  1  0  0  0  0  0  0  0  0
    6.6866   -2.5472   -2.4030 H   0  0  0  1  0  0  0  0  0  0  0  0
    6.3331   -4.2480   -2.2156 H   0  0  0  1  0  0  0  0  0  0  0  0
    7.9853   -3.6845   -2.1336 H   0  0  0  1  0  0  0  0  0  0  0  0
  1  3  1  0  0  0  0
  1 14  2  0  0  0  0
  1 19  1  0  0  0  0
  2  3  1  0  0  0  0
  2 16  1  0  0  0  0
  2 21  1  0  0  0  0
  3  4  1  0  0  0  0
  3 22  1  0  0  0  0
  4  5  1  0  0  0  0
  4 23  1  0  0  0  0
  4 24  1  0  0  0  0
  5  6  4  0  0  0  0
  5 13  4  0  0  0  0
  6  7  4  0  0  0  0
  6 25  1  0  0  0  0
  7  8  4  0  0  0  0
  7 26  1  0  0  0  0
  8  9  4  0  0  0  0
  8 13  4  0  0  0  0
  9 10  4  0  0  0  0
  9 27  1  0  0  0  0
 10 11  4  0  0  0  0
 10 28  1  0  0  0  0
 11 12  4  0  0  0  0
 11 15  1  0  0  0  0
 12 13  4  0  0  0  0
 12 29  1  0  0  0  0
 16 17  2  0  0  0  0
 16 18  1  0  0  0  0
 18 30  1  0  0  0  0
 18 31  1  0  0  0  0
 18 32  1  0  0  0  0
 19 20  1  0  0  0  0
 19 33  1  0  0  0  0
 20 34  1  0  0  0  0
 20 35  1  0  0  0  0
 20 36  1  0  0  0  0
M  END
> <ConfClashScore>
0 

> <ConfOneFourInteractionScore>
-0.970447 

> <ConfScore>
0.774131 

> <ConfScorePBest>
0.00500445 

> <ConfTolerance>
1.65427 

$$$$
5F-TRP.3D.capped.mmff94s.pdb
 OpenBabel09172212003D

 36 37  0  0  0  0  0  0  0  0999 V2000
    7.8117   -1.9398    3.0099 C   0  0  0  1  0  0  0  0  0  0  0  0
    6.9632   -3.6694    1.5207 N   0  0  0  1  0  0  0  0  0  0  0  0
    6.9290   -2.2459    1.8211 C   0  0  0  1  0  0  0  0  0  0  0  0
    5.5271   -1.7308    2.1196 C   0  0  0  1  0  0  0  0  0  0  0  0
    4.7956   -2.5669    3.1354 C   0  0  0  1  0  0  0  0  0  0  0  0
    4.0169   -3.6791    2.8793 C   0  0  0  1  0  0  0  0  0  0  0  0
    3.5215   -4.1415    4.0681 N   0  0  0  1  0  0  0  0  0  0  0  0
    3.9668   -3.3582    5.1063 C   0  0  0  1  0  0  0  0  0  0  0  0
    3.7152   -3.4592    6.4813 C   0  0  0  1  0  0  0  0  0  0  0  0
    4.3092   -2.5098    7.3165 C   0  0  0  1  0  0  0  0  0  0  0  0
    5.1157   -1.5114    6.7860 C   0  0  0  1  0  0  0  0  0  0  0  0
    5.3624   -1.4174    5.4160 C   0  0  0  1  0  0  0  0  0  0  0  0
    4.7733   -2.3619    4.5528 C   0  0  0  1  0  0  0  0  0  0  0  0
    7.6130   -0.9451    3.7024 O   0  0  0  1  0  0  0  0  0  0  0  0
    5.6747   -0.6100    7.6160 F   0  0  0  1  0  0  0  0  0  0  0  0
    6.8153   -4.5744    2.5103 C   0  0  0  1  0  0  0  0  0  0  0  0
    6.6888   -4.2202    3.6817 O   0  0  0  1  0  0  0  0  0  0  0  0
    6.8093   -6.0441    2.1373 C   0  0  0  1  0  0  0  0  0  0  0  0
    8.8118   -2.7824    3.2831 N   0  0  0  1  0  0  0  0  0  0  0  0
    9.7607   -2.5397    4.3595 C   0  0  0  1  0  0  0  0  0  0  0  0
    7.0938   -3.9713    0.5975 H   0  0  0  1  0  0  0  0  0  0  0  0
    7.3054   -1.7048    0.9782 H   0  0  0  1  0  0  0  0  0  0  0  0
    4.9637   -1.7299    1.2099 H   0  0  0  1  0  0  0  0  0  0  0  0
    5.6040   -0.7311    2.4931 H   0  0  0  1  0  0  0  0  0  0  0  0
    3.8379   -4.0941    1.9426 H   0  0  0  1  0  0  0  0  0  0  0  0
    2.9335   -4.9194    4.1654 H   0  0  0  1  0  0  0  0  0  0  0  0
    3.1093   -4.2123    6.8653 H   0  0  0  1  0  0  0  0  0  0  0  0
    4.1462   -2.5510    8.3428 H   0  0  0  1  0  0  0  0  0  0  0  0
    5.9707   -0.6630    5.0386 H   0  0  0  1  0  0  0  0  0  0  0  0
    5.9583   -6.5208    2.5772 H   0  0  0  1  0  0  0  0  0  0  0  0
    7.7037   -6.5072    2.4988 H   0  0  0  1  0  0  0  0  0  0  0  0
    6.7618   -6.1414    1.0728 H   0  0  0  1  0  0  0  0  0  0  0  0
    8.9099   -3.5921    2.7398 H   0  0  0  1  0  0  0  0  0  0  0  0
    9.2340   -2.4503    5.2866 H   0  0  0  1  0  0  0  0  0  0  0  0
   10.2962   -1.6340    4.1651 H   0  0  0  1  0  0  0  0  0  0  0  0
   10.4496   -3.3564    4.4182 H   0  0  0  1  0  0  0  0  0  0  0  0
  1  3  1  0  0  0  0
  1 14  2  0  0  0  0
  1 19  1  0  0  0  0
  2  3  1  0  0  0  0
  2 16  1  0  0  0  0
  2 21  1  0  0  0  0
  3  4  1  0  0  0  0
  3 22  1  0  0  0  0
  4  5  1  0  0  0  0
  4 23  1  0  0  0  0
  4 24  1  0  0  0  0
  5  6  4  0  0  0  0
  5 13  4  0  0  0  0
  6  7  4  0  0  0  0
  6 25  1  0  0  0  0
  7  8  4  0  0  0  0
  7 26  1  0  0  0  0
  8  9  4  0  0  0  0
  8 13  4  0  0  0  0
  9 10  4  0  0  0  0
  9 27  1  0  0  0  0
 10 11  4  0  0  0  0
 10 28  1  0  0  0  0
 11 12  4  0  0  0  0
 11 15  1  0  0  0  0
 12 13  4  0  0  0  0
 12 29  1  0  0  0  0
 16 17  2  0  0  0  0
 16 18  1  0  0  0  0
 18 30  1  0  0  0  0
 18 31  1  0  0  0  0
 18 32  1  0  0  0  0
 19 20  1  0  0  0  0
 19 33  1  0  0  0  0
 20 34  1  0  0  0  0
 20 35  1  0  0  0  0
 20 36  1  0  0  0  0
M  END
> <ConfClashScore>
0 

> <ConfOneFourInteractionScore>
-0.928983 

> <ConfScore>
0.856398 

> <ConfScorePBest>
0.00490145 

> <ConfTolerance>
2.55701 

$$$$
