5FW.qm
 OpenBabel09182216093D

 36 37  0  0  0  0  0  0  0  0999 V2000
    7.7627   -1.4316    0.8630 C   0  0  0  1  0  0  0  0  0  0  0  0
    7.7602   -2.2075    3.1817 N   0  0  0  1  0  0  0  0  0  0  0  0
    6.9931   -2.1841    1.9444 C   0  0  0  1  0  0  0  0  0  0  0  0
    5.6247   -1.5527    2.1648 C   0  0  0  1  0  0  0  0  0  0  0  0
    4.7425   -2.3584    3.0958 C   0  0  0  1  0  0  0  0  0  0  0  0
    3.8453   -3.3237    2.7452 C   0  0  0  1  0  0  0  0  0  0  0  0
    3.2217   -3.8188    3.8618 N   0  0  0  1  0  0  0  0  0  0  0  0
    3.7237   -3.1914    4.9691 C   0  0  0  1  0  0  0  0  0  0  0  0
    3.4212   -3.3554    6.3237 C   0  0  0  1  0  0  0  0  0  0  0  0
    4.0915   -2.5580    7.2258 C   0  0  0  1  0  0  0  0  0  0  0  0
    5.0303   -1.6201    6.8078 C   0  0  0  1  0  0  0  0  0  0  0  0
    5.3337   -1.4615    5.4736 C   0  0  0  1  0  0  0  0  0  0  0  0
    4.6807   -2.2612    4.5294 C   0  0  0  1  0  0  0  0  0  0  0  0
    7.7158   -1.7929   -0.3121 O   0  0  0  1  0  0  0  0  0  0  0  0
    5.6531   -0.8538    7.7237 F   0  0  0  1  0  0  0  0  0  0  0  0
    9.0041   -2.6768    3.2828 C   0  0  0  1  0  0  0  0  0  0  0  0
    9.6500   -3.0765    2.3151 O   0  0  0  1  0  0  0  0  0  0  0  0
    9.5909   -2.6916    4.6809 C   0  0  0  1  0  0  0  0  0  0  0  0
    8.4873   -0.3710    1.2305 N   0  0  0  1  0  0  0  0  0  0  0  0
    9.2918    0.3868    0.2837 C   0  0  0  1  0  0  0  0  0  0  0  0
    7.3352   -1.8559    3.9917 H   0  0  0  1  0  0  0  0  0  0  0  0
    6.8451   -3.1890    1.6079 H   0  0  0  1  0  0  0  0  0  0  0  0
    5.1326   -1.4672    1.2185 H   0  0  0  1  0  0  0  0  0  0  0  0
    5.7628   -0.5784    2.5849 H   0  0  0  1  0  0  0  0  0  0  0  0
    3.6605   -3.6390    1.7715 H   0  0  0  1  0  0  0  0  0  0  0  0
    2.5279   -4.5109    3.8660 H   0  0  0  1  0  0  0  0  0  0  0  0
    2.7170   -4.0528    6.6389 H   0  0  0  1  0  0  0  0  0  0  0  0
    3.8913   -2.6596    8.2412 H   0  0  0  1  0  0  0  0  0  0  0  0
    6.0378   -0.7578    5.1726 H   0  0  0  1  0  0  0  0  0  0  0  0
    9.7411   -1.6866    5.0159 H   0  0  0  1  0  0  0  0  0  0  0  0
   10.5284   -3.2071    4.6685 H   0  0  0  1  0  0  0  0  0  0  0  0
    8.9171   -3.1917    5.3449 H   0  0  0  1  0  0  0  0  0  0  0  0
    8.4767   -0.0937    2.1704 H   0  0  0  1  0  0  0  0  0  0  0  0
    8.8878    0.2720   -0.7004 H   0  0  0  1  0  0  0  0  0  0  0  0
   10.2982    0.0237    0.3004 H   0  0  0  1  0  0  0  0  0  0  0  0
    9.2809    1.4218    0.5550 H   0  0  0  1  0  0  0  0  0  0  0  0
  1  3  1  0  0  0  0
  1 14  2  0  0  0  0
  1 19  1  0  0  0  0
  2  3  1  0  0  0  0
  2 16  1  0  0  0  0
  2 21  1  0  0  0  0
  3  4  1  0  0  0  0
  3 22  1  0  0  0  0
  4  5  1  0  0  0  0
  4 23  1  0  0  0  0
  4 24  1  0  0  0  0
  5  6  4  0  0  0  0
  5 13  4  0  0  0  0
  6  7  4  0  0  0  0
  6 25  1  0  0  0  0
  7  8  4  0  0  0  0
  7 26  1  0  0  0  0
  8  9  4  0  0  0  0
  8 13  4  0  0  0  0
  9 10  4  0  0  0  0
  9 27  1  0  0  0  0
 10 11  4  0  0  0  0
 10 28  1  0  0  0  0
 11 12  4  0  0  0  0
 11 15  1  0  0  0  0
 12 13  4  0  0  0  0
 12 29  1  0  0  0  0
 16 17  2  0  0  0  0
 16 18  1  0  0  0  0
 18 30  1  0  0  0  0
 18 31  1  0  0  0  0
 18 32  1  0  0  0  0
 19 20  1  0  0  0  0
 19 33  1  0  0  0  0
 20 34  1  0  0  0  0
 20 35  1  0  0  0  0
 20 36  1  0  0  0  0
M  END
> <ConfClashScore>
0 

> <ConfOneFourInteractionScore>
-0.956443 

> <ConfScore>
0.349314 

> <ConfScorePBest>
0.0150985 

> <ConfTolerance>
0.25 

$$$$
5FW.qm
 OpenBabel09182216093D

 36 37  0  0  0  0  0  0  0  0999 V2000
    7.7987   -1.6225    0.8095 C   0  0  0  1  0  0  0  0  0  0  0  0
    7.6159   -2.8178    2.9060 N   0  0  0  1  0  0  0  0  0  0  0  0
    6.8616   -2.3732    1.7436 C   0  0  0  1  0  0  0  0  0  0  0  0
    5.6357   -1.5548    2.1595 C   0  0  0  1  0  0  0  0  0  0  0  0
    4.7469   -2.3542    3.0922 C   0  0  0  1  0  0  0  0  0  0  0  0
    3.8447   -3.3295    2.7373 C   0  0  0  1  0  0  0  0  0  0  0  0
    3.2104   -3.8268    3.8572 N   0  0  0  1  0  0  0  0  0  0  0  0
    3.7157   -3.1913    4.9757 C   0  0  0  1  0  0  0  0  0  0  0  0
    3.4154   -3.3629    6.3304 C   0  0  0  1  0  0  0  0  0  0  0  0
    4.0846   -2.5617    7.2508 C   0  0  0  1  0  0  0  0  0  0  0  0
    5.0294   -1.6262    6.7987 C   0  0  0  1  0  0  0  0  0  0  0  0
    5.3466   -1.4383    5.4668 C   0  0  0  1  0  0  0  0  0  0  0  0
    4.6794   -2.2436    4.5244 C   0  0  0  1  0  0  0  0  0  0  0  0
    7.5268   -1.5292   -0.3867 O   0  0  0  1  0  0  0  0  0  0  0  0
    5.6624   -0.8690    7.7152 F   0  0  0  1  0  0  0  0  0  0  0  0
    8.5913   -3.7460    2.8203 C   0  0  0  1  0  0  0  0  0  0  0  0
    8.9679   -4.1734    1.7298 O   0  0  0  1  0  0  0  0  0  0  0  0
    9.2119   -4.2490    4.1091 C   0  0  0  1  0  0  0  0  0  0  0  0
    8.8550   -1.0159    1.3721 N   0  0  0  1  0  0  0  0  0  0  0  0
    9.8823   -0.3530    0.5827 C   0  0  0  1  0  0  0  0  0  0  0  0
    7.4082   -2.4295    3.7815 H   0  0  0  1  0  0  0  0  0  0  0  0
    6.5080   -3.2369    1.2203 H   0  0  0  1  0  0  0  0  0  0  0  0
    5.0782   -1.2893    1.2857 H   0  0  0  1  0  0  0  0  0  0  0  0
    5.9602   -0.6664    2.6598 H   0  0  0  1  0  0  0  0  0  0  0  0
    3.6659   -3.6470    1.7632 H   0  0  0  1  0  0  0  0  0  0  0  0
    2.5153   -4.5176    3.8592 H   0  0  0  1  0  0  0  0  0  0  0  0
    2.7148   -4.0663    6.6402 H   0  0  0  1  0  0  0  0  0  0  0  0
    3.8861   -2.6551    8.2674 H   0  0  0  1  0  0  0  0  0  0  0  0
    6.0498   -0.7308    5.1726 H   0  0  0  1  0  0  0  0  0  0  0  0
    9.8604   -3.4982    4.5101 H   0  0  0  1  0  0  0  0  0  0  0  0
    9.7747   -5.1372    3.9108 H   0  0  0  1  0  0  0  0  0  0  0  0
    8.4386   -4.4665    4.8159 H   0  0  0  1  0  0  0  0  0  0  0  0
    8.9377   -1.0193    2.3486 H   0  0  0  1  0  0  0  0  0  0  0  0
    9.4341    0.1056   -0.2739 H   0  0  0  1  0  0  0  0  0  0  0  0
   10.6065   -1.0731    0.2634 H   0  0  0  1  0  0  0  0  0  0  0  0
   10.3615    0.3958    1.1780 H   0  0  0  1  0  0  0  0  0  0  0  0
  1  3  1  0  0  0  0
  1 14  2  0  0  0  0
  1 19  1  0  0  0  0
  2  3  1  0  0  0  0
  2 16  1  0  0  0  0
  2 21  1  0  0  0  0
  3  4  1  0  0  0  0
  3 22  1  0  0  0  0
  4  5  1  0  0  0  0
  4 23  1  0  0  0  0
  4 24  1  0  0  0  0
  5  6  4  0  0  0  0
  5 13  4  0  0  0  0
  6  7  4  0  0  0  0
  6 25  1  0  0  0  0
  7  8  4  0  0  0  0
  7 26  1  0  0  0  0
  8  9  4  0  0  0  0
  8 13  4  0  0  0  0
  9 10  4  0  0  0  0
  9 27  1  0  0  0  0
 10 11  4  0  0  0  0
 10 28  1  0  0  0  0
 11 12  4  0  0  0  0
 11 15  1  0  0  0  0
 12 13  4  0  0  0  0
 12 29  1  0  0  0  0
 16 17  2  0  0  0  0
 16 18  1  0  0  0  0
 18 30  1  0  0  0  0
 18 31  1  0  0  0  0
 18 32  1  0  0  0  0
 19 20  1  0  0  0  0
 19 33  1  0  0  0  0
 20 34  1  0  0  0  0
 20 35  1  0  0  0  0
 20 36  1  0  0  0  0
M  END
> <ConfClashScore>
0 

> <ConfOneFourInteractionScore>
-0.937775 

> <ConfScore>
0.349314 

> <ConfScorePBest>
0.0149955 

> <ConfTolerance>
0.266508 

$$$$
5FW.qm
 OpenBabel09182216093D

 36 37  0  0  0  0  0  0  0  0999 V2000
    5.9434    0.3824    0.6105 C   0  0  0  1  0  0  0  0  0  0  0  0
    3.8251   -0.8955    0.6700 N   0  0  0  1  0  0  0  0  0  0  0  0
    4.9503   -0.4046    1.4493 C   0  0  0  1  0  0  0  0  0  0  0  0
    5.6300   -1.5599    2.1660 C   0  0  0  1  0  0  0  0  0  0  0  0
    4.7475   -2.3536    3.0919 C   0  0  0  1  0  0  0  0  0  0  0  0
    3.8453   -3.3289    2.7368 C   0  0  0  1  0  0  0  0  0  0  0  0
    3.2109   -3.8263    3.8566 N   0  0  0  1  0  0  0  0  0  0  0  0
    3.7161   -3.1909    4.9752 C   0  0  0  1  0  0  0  0  0  0  0  0
    3.4156   -3.3627    6.3299 C   0  0  0  1  0  0  0  0  0  0  0  0
    4.0847   -2.5615    7.2504 C   0  0  0  1  0  0  0  0  0  0  0  0
    5.0297   -1.6260    6.7984 C   0  0  0  1  0  0  0  0  0  0  0  0
    5.3470   -1.4380    5.4666 C   0  0  0  1  0  0  0  0  0  0  0  0
    4.6798   -2.2432    4.5241 C   0  0  0  1  0  0  0  0  0  0  0  0
    6.7340    1.1857    1.0683 O   0  0  0  1  0  0  0  0  0  0  0  0
    5.6626   -0.8689    7.7151 F   0  0  0  1  0  0  0  0  0  0  0  0
    3.1023   -0.0448   -0.0844 C   0  0  0  1  0  0  0  0  0  0  0  0
    3.2694    1.1631   -0.1224 O   0  0  0  1  0  0  0  0  0  0  0  0
    2.0209   -0.7298   -0.9169 C   0  0  0  1  0  0  0  0  0  0  0  0
    5.9127    0.1475   -0.7044 N   0  0  0  1  0  0  0  0  0  0  0  0
    6.8811    0.7304   -1.6210 C   0  0  0  1  0  0  0  0  0  0  0  0
    3.5920   -1.8470    0.6936 H   0  0  0  1  0  0  0  0  0  0  0  0
    4.5727    0.2564    2.2012 H   0  0  0  1  0  0  0  0  0  0  0  0
    6.4387   -1.1611    2.7421 H   0  0  0  1  0  0  0  0  0  0  0  0
    6.0153   -2.2278    1.4241 H   0  0  0  1  0  0  0  0  0  0  0  0
    3.6666   -3.6464    1.7627 H   0  0  0  1  0  0  0  0  0  0  0  0
    2.5158   -4.5171    3.8585 H   0  0  0  1  0  0  0  0  0  0  0  0
    2.7150   -4.0661    6.6395 H   0  0  0  1  0  0  0  0  0  0  0  0
    3.8862   -2.6550    8.2670 H   0  0  0  1  0  0  0  0  0  0  0  0
    6.0502   -0.7304    5.1725 H   0  0  0  1  0  0  0  0  0  0  0  0
    2.4504   -1.5478   -1.4567 H   0  0  0  1  0  0  0  0  0  0  0  0
    1.6039   -0.0268   -1.6074 H   0  0  0  1  0  0  0  0  0  0  0  0
    1.2508   -1.0949   -0.2699 H   0  0  0  1  0  0  0  0  0  0  0  0
    5.2137   -0.4377   -1.0641 H   0  0  0  1  0  0  0  0  0  0  0  0
    7.8463    0.7444   -1.1594 H   0  0  0  1  0  0  0  0  0  0  0  0
    6.5867    1.7304   -1.8620 H   0  0  0  1  0  0  0  0  0  0  0  0
    6.9224    0.1448   -2.5156 H   0  0  0  1  0  0  0  0  0  0  0  0
  1  3  1  0  0  0  0
  1 14  2  0  0  0  0
  1 19  1  0  0  0  0
  2  3  1  0  0  0  0
  2 16  1  0  0  0  0
  2 21  1  0  0  0  0
  3  4  1  0  0  0  0
  3 22  1  0  0  0  0
  4  5  1  0  0  0  0
  4 23  1  0  0  0  0
  4 24  1  0  0  0  0
  5  6  4  0  0  0  0
  5 13  4  0  0  0  0
  6  7  4  0  0  0  0
  6 25  1  0  0  0  0
  7  8  4  0  0  0  0
  7 26  1  0  0  0  0
  8  9  4  0  0  0  0
  8 13  4  0  0  0  0
  9 10  4  0  0  0  0
  9 27  1  0  0  0  0
 10 11  4  0  0  0  0
 10 28  1  0  0  0  0
 11 12  4  0  0  0  0
 11 15  1  0  0  0  0
 12 13  4  0  0  0  0
 12 29  1  0  0  0  0
 16 17  2  0  0  0  0
 16 18  1  0  0  0  0
 18 30  1  0  0  0  0
 18 31  1  0  0  0  0
 18 32  1  0  0  0  0
 19 20  1  0  0  0  0
 19 33  1  0  0  0  0
 20 34  1  0  0  0  0
 20 35  1  0  0  0  0
 20 36  1  0  0  0  0
M  END
> <ConfClashScore>
0 

> <ConfOneFourInteractionScore>
-0.956443 

> <ConfScore>
0.356812 

> <ConfScorePBest>
0.0148925 

> <ConfTolerance>
0.25 

$$$$
5FW.qm
 OpenBabel09182216093D

 36 37  0  0  0  0  0  0  0  0999 V2000
    7.7499   -1.3327    0.8842 C   0  0  0  1  0  0  0  0  0  0  0  0
    7.5745   -2.9337    2.7085 N   0  0  0  1  0  0  0  0  0  0  0  0
    6.8427   -2.2892    1.6333 C   0  0  0  1  0  0  0  0  0  0  0  0
    5.6198   -1.5571    2.1704 C   0  0  0  1  0  0  0  0  0  0  0  0
    4.7430   -2.3580    3.0955 C   0  0  0  1  0  0  0  0  0  0  0  0
    3.8458   -3.3232    2.7448 C   0  0  0  1  0  0  0  0  0  0  0  0
    3.2222   -3.8184    3.8613 N   0  0  0  1  0  0  0  0  0  0  0  0
    3.7241   -3.1911    4.9686 C   0  0  0  1  0  0  0  0  0  0  0  0
    3.4215   -3.3552    6.3232 C   0  0  0  1  0  0  0  0  0  0  0  0
    4.0916   -2.5579    7.2254 C   0  0  0  1  0  0  0  0  0  0  0  0
    5.0305   -1.6199    6.8076 C   0  0  0  1  0  0  0  0  0  0  0  0
    5.3340   -1.4612    5.4735 C   0  0  0  1  0  0  0  0  0  0  0  0
    4.6811   -2.2608    4.5291 C   0  0  0  1  0  0  0  0  0  0  0  0
    7.7194   -1.2529   -0.3429 O   0  0  0  1  0  0  0  0  0  0  0  0
    5.6532   -0.8537    7.7236 F   0  0  0  1  0  0  0  0  0  0  0  0
    8.6965   -3.6500    2.4885 C   0  0  0  1  0  0  0  0  0  0  0  0
    9.2377   -3.6600    1.3836 O   0  0  0  1  0  0  0  0  0  0  0  0
    9.2731   -4.4445    3.6441 C   0  0  0  1  0  0  0  0  0  0  0  0
    8.5719   -0.5945    1.6435 N   0  0  0  1  0  0  0  0  0  0  0  0
    9.4228    0.4452    1.0841 C   0  0  0  1  0  0  0  0  0  0  0  0
    7.2420   -2.8456    3.6262 H   0  0  0  1  0  0  0  0  0  0  0  0
    6.5060   -3.0363    0.9453 H   0  0  0  1  0  0  0  0  0  0  0  0
    5.0254   -1.2507    1.3351 H   0  0  0  1  0  0  0  0  0  0  0  0
    5.9596   -0.6935    2.7029 H   0  0  0  1  0  0  0  0  0  0  0  0
    3.6612   -3.6384    1.7710 H   0  0  0  1  0  0  0  0  0  0  0  0
    2.5284   -4.5105    3.8653 H   0  0  0  1  0  0  0  0  0  0  0  0
    2.7172   -4.0526    6.6383 H   0  0  0  1  0  0  0  0  0  0  0  0
    3.8913   -2.6596    8.2408 H   0  0  0  1  0  0  0  0  0  0  0  0
    6.0382   -0.7575    5.1725 H   0  0  0  1  0  0  0  0  0  0  0  0
    8.6634   -5.3048    3.8256 H   0  0  0  1  0  0  0  0  0  0  0  0
    9.2958   -3.8322    4.5213 H   0  0  0  1  0  0  0  0  0  0  0  0
   10.2671   -4.7570    3.4009 H   0  0  0  1  0  0  0  0  0  0  0  0
    8.6007   -0.7607    2.6088 H   0  0  0  1  0  0  0  0  0  0  0  0
    8.8296    1.1147    0.4970 H   0  0  0  1  0  0  0  0  0  0  0  0
   10.1726   -0.0024    0.4656 H   0  0  0  1  0  0  0  0  0  0  0  0
    9.8918    0.9875    1.8782 H   0  0  0  1  0  0  0  0  0  0  0  0
  1  3  1  0  0  0  0
  1 14  2  0  0  0  0
  1 19  1  0  0  0  0
  2  3  1  0  0  0  0
  2 16  1  0  0  0  0
  2 21  1  0  0  0  0
  3  4  1  0  0  0  0
  3 22  1  0  0  0  0
  4  5  1  0  0  0  0
  4 23  1  0  0  0  0
  4 24  1  0  0  0  0
  5  6  4  0  0  0  0
  5 13  4  0  0  0  0
  6  7  4  0  0  0  0
  6 25  1  0  0  0  0
  7  8  4  0  0  0  0
  7 26  1  0  0  0  0
  8  9  4  0  0  0  0
  8 13  4  0  0  0  0
  9 10  4  0  0  0  0
  9 27  1  0  0  0  0
 10 11  4  0  0  0  0
 10 28  1  0  0  0  0
 11 12  4  0  0  0  0
 11 15  1  0  0  0  0
 12 13  4  0  0  0  0
 12 29  1  0  0  0  0
 16 17  2  0  0  0  0
 16 18  1  0  0  0  0
 18 30  1  0  0  0  0
 18 31  1  0  0  0  0
 18 32  1  0  0  0  0
 19 20  1  0  0  0  0
 19 33  1  0  0  0  0
 20 34  1  0  0  0  0
 20 35  1  0  0  0  0
 20 36  1  0  0  0  0
M  END
> <ConfClashScore>
0 

> <ConfOneFourInteractionScore>
-0.94165 

> <ConfScore>
0.358325 

> <ConfScorePBest>
0.0147895 

> <ConfTolerance>
0.506139 

$$$$
5FW.qm
 OpenBabel09182216093D

 36 37  0  0  0  0  0  0  0  0999 V2000
    5.9344    0.3815    0.6304 C   0  0  0  1  0  0  0  0  0  0  0  0
    3.7306   -0.6152    0.9249 N   0  0  0  1  0  0  0  0  0  0  0  0
    4.9844   -0.3023    1.5942 C   0  0  0  1  0  0  0  0  0  0  0  0
    5.6198   -1.5571    2.1704 C   0  0  0  1  0  0  0  0  0  0  0  0
    4.7430   -2.3580    3.0955 C   0  0  0  1  0  0  0  0  0  0  0  0
    3.8458   -3.3232    2.7448 C   0  0  0  1  0  0  0  0  0  0  0  0
    3.2222   -3.8184    3.8613 N   0  0  0  1  0  0  0  0  0  0  0  0
    3.7241   -3.1911    4.9686 C   0  0  0  1  0  0  0  0  0  0  0  0
    3.4215   -3.3552    6.3232 C   0  0  0  1  0  0  0  0  0  0  0  0
    4.0916   -2.5579    7.2254 C   0  0  0  1  0  0  0  0  0  0  0  0
    5.0305   -1.6199    6.8076 C   0  0  0  1  0  0  0  0  0  0  0  0
    5.3340   -1.4612    5.4735 C   0  0  0  1  0  0  0  0  0  0  0  0
    4.6811   -2.2608    4.5291 C   0  0  0  1  0  0  0  0  0  0  0  0
    6.7408    1.2254    1.0195 O   0  0  0  1  0  0  0  0  0  0  0  0
    5.6532   -0.8537    7.7236 F   0  0  0  1  0  0  0  0  0  0  0  0
    2.8370    0.3357    0.5896 C   0  0  0  1  0  0  0  0  0  0  0  0
    2.9319    1.5241    0.8933 O   0  0  0  1  0  0  0  0  0  0  0  0
    1.6597   -0.1895   -0.2220 C   0  0  0  1  0  0  0  0  0  0  0  0
    5.8326    0.0054   -0.6542 N   0  0  0  1  0  0  0  0  0  0  0  0
    6.5834    0.5899   -1.7554 C   0  0  0  1  0  0  0  0  0  0  0  0
    3.5293   -1.5501    0.7107 H   0  0  0  1  0  0  0  0  0  0  0  0
    4.7884    0.3700    2.4032 H   0  0  0  1  0  0  0  0  0  0  0  0
    6.4935   -1.2647    2.7145 H   0  0  0  1  0  0  0  0  0  0  0  0
    5.9022   -2.1887    1.3541 H   0  0  0  1  0  0  0  0  0  0  0  0
    3.6612   -3.6384    1.7710 H   0  0  0  1  0  0  0  0  0  0  0  0
    2.5284   -4.5105    3.8653 H   0  0  0  1  0  0  0  0  0  0  0  0
    2.7172   -4.0526    6.6383 H   0  0  0  1  0  0  0  0  0  0  0  0
    3.8913   -2.6596    8.2408 H   0  0  0  1  0  0  0  0  0  0  0  0
    6.0382   -0.7575    5.1725 H   0  0  0  1  0  0  0  0  0  0  0  0
    1.0842   -0.8630    0.3782 H   0  0  0  1  0  0  0  0  0  0  0  0
    2.0240   -0.7046   -1.0861 H   0  0  0  1  0  0  0  0  0  0  0  0
    1.0438    0.6302   -0.5280 H   0  0  0  1  0  0  0  0  0  0  0  0
    5.2055   -0.7171   -0.8665 H   0  0  0  1  0  0  0  0  0  0  0  0
    7.6265    0.3937   -1.6204 H   0  0  0  1  0  0  0  0  0  0  0  0
    6.4195    1.6470   -1.7772 H   0  0  0  1  0  0  0  0  0  0  0  0
    6.2562    0.1587   -2.6784 H   0  0  0  1  0  0  0  0  0  0  0  0
  1  3  1  0  0  0  0
  1 14  2  0  0  0  0
  1 19  1  0  0  0  0
  2  3  1  0  0  0  0
  2 16  1  0  0  0  0
  2 21  1  0  0  0  0
  3  4  1  0  0  0  0
  3 22  1  0  0  0  0
  4  5  1  0  0  0  0
  4 23  1  0  0  0  0
  4 24  1  0  0  0  0
  5  6  4  0  0  0  0
  5 13  4  0  0  0  0
  6  7  4  0  0  0  0
  6 25  1  0  0  0  0
  7  8  4  0  0  0  0
  7 26  1  0  0  0  0
  8  9  4  0  0  0  0
  8 13  4  0  0  0  0
  9 10  4  0  0  0  0
  9 27  1  0  0  0  0
 10 11  4  0  0  0  0
 10 28  1  0  0  0  0
 11 12  4  0  0  0  0
 11 15  1  0  0  0  0
 12 13  4  0  0  0  0
 12 29  1  0  0  0  0
 16 17  2  0  0  0  0
 16 18  1  0  0  0  0
 18 30  1  0  0  0  0
 18 31  1  0  0  0  0
 18 32  1  0  0  0  0
 19 20  1  0  0  0  0
 19 33  1  0  0  0  0
 20 34  1  0  0  0  0
 20 35  1  0  0  0  0
 20 36  1  0  0  0  0
M  END
> <ConfClashScore>
0 

> <ConfOneFourInteractionScore>
-0.94165 

> <ConfScore>
0.365823 

> <ConfScorePBest>
0.0146865 

> <ConfTolerance>
0.254683 

$$$$
5FW.qm
 OpenBabel09182216093D

 36 37  0  0  0  0  0  0  0  0999 V2000
    4.1926    0.4487    2.4961 C   0  0  0  1  0  0  0  0  0  0  0  0
    5.8264    0.3276    0.6193 N   0  0  0  1  0  0  0  0  0  0  0  0
    4.8938   -0.4153    1.4536 C   0  0  0  1  0  0  0  0  0  0  0  0
    5.6357   -1.5548    2.1595 C   0  0  0  1  0  0  0  0  0  0  0  0
    4.7469   -2.3542    3.0922 C   0  0  0  1  0  0  0  0  0  0  0  0
    3.8447   -3.3295    2.7373 C   0  0  0  1  0  0  0  0  0  0  0  0
    3.2104   -3.8268    3.8572 N   0  0  0  1  0  0  0  0  0  0  0  0
    3.7157   -3.1913    4.9757 C   0  0  0  1  0  0  0  0  0  0  0  0
    3.4154   -3.3629    6.3304 C   0  0  0  1  0  0  0  0  0  0  0  0
    4.0846   -2.5617    7.2508 C   0  0  0  1  0  0  0  0  0  0  0  0
    5.0294   -1.6262    6.7987 C   0  0  0  1  0  0  0  0  0  0  0  0
    5.3466   -1.4383    5.4668 C   0  0  0  1  0  0  0  0  0  0  0  0
    4.6794   -2.2436    4.5244 C   0  0  0  1  0  0  0  0  0  0  0  0
    3.0671    0.1543    2.8899 O   0  0  0  1  0  0  0  0  0  0  0  0
    5.6624   -0.8690    7.7152 F   0  0  0  1  0  0  0  0  0  0  0  0
    5.4196    1.2404   -0.2675 C   0  0  0  1  0  0  0  0  0  0  0  0
    4.2374    1.5440   -0.4220 O   0  0  0  1  0  0  0  0  0  0  0  0
    6.5137    1.8944   -1.0887 C   0  0  0  1  0  0  0  0  0  0  0  0
    4.8159    1.5666    2.8793 N   0  0  0  1  0  0  0  0  0  0  0  0
    4.1814    2.5549    3.7387 C   0  0  0  1  0  0  0  0  0  0  0  0
    6.7862    0.1523    0.7110 H   0  0  0  1  0  0  0  0  0  0  0  0
    4.1429   -0.8510    0.8281 H   0  0  0  1  0  0  0  0  0  0  0  0
    6.4388   -1.1367    2.7296 H   0  0  0  1  0  0  0  0  0  0  0  0
    6.0311   -2.2155    1.4165 H   0  0  0  1  0  0  0  0  0  0  0  0
    3.6659   -3.6470    1.7632 H   0  0  0  1  0  0  0  0  0  0  0  0
    2.5153   -4.5176    3.8592 H   0  0  0  1  0  0  0  0  0  0  0  0
    2.7148   -4.0663    6.6402 H   0  0  0  1  0  0  0  0  0  0  0  0
    3.8861   -2.6551    8.2674 H   0  0  0  1  0  0  0  0  0  0  0  0
    6.0498   -0.7308    5.1726 H   0  0  0  1  0  0  0  0  0  0  0  0
    6.8723    1.2022   -1.8216 H   0  0  0  1  0  0  0  0  0  0  0  0
    7.3190    2.1813   -0.4453 H   0  0  0  1  0  0  0  0  0  0  0  0
    6.1218    2.7611   -1.5787 H   0  0  0  1  0  0  0  0  0  0  0  0
    5.7323    1.7266    2.5710 H   0  0  0  1  0  0  0  0  0  0  0  0
    3.6045    2.0572    4.4899 H   0  0  0  1  0  0  0  0  0  0  0  0
    3.5400    3.1784    3.1515 H   0  0  0  1  0  0  0  0  0  0  0  0
    4.9332    3.1557    4.2063 H   0  0  0  1  0  0  0  0  0  0  0  0
  1  3  1  0  0  0  0
  1 14  2  0  0  0  0
  1 19  1  0  0  0  0
  2  3  1  0  0  0  0
  2 16  1  0  0  0  0
  2 21  1  0  0  0  0
  3  4  1  0  0  0  0
  3 22  1  0  0  0  0
  4  5  1  0  0  0  0
  4 23  1  0  0  0  0
  4 24  1  0  0  0  0
  5  6  4  0  0  0  0
  5 13  4  0  0  0  0
  6  7  4  0  0  0  0
  6 25  1  0  0  0  0
  7  8  4  0  0  0  0
  7 26  1  0  0  0  0
  8  9  4  0  0  0  0
  8 13  4  0  0  0  0
  9 10  4  0  0  0  0
  9 27  1  0  0  0  0
 10 11  4  0  0  0  0
 10 28  1  0  0  0  0
 11 12  4  0  0  0  0
 11 15  1  0  0  0  0
 12 13  4  0  0  0  0
 12 29  1  0  0  0  0
 16 17  2  0  0  0  0
 16 18  1  0  0  0  0
 18 30  1  0  0  0  0
 18 31  1  0  0  0  0
 18 32  1  0  0  0  0
 19 20  1  0  0  0  0
 19 33  1  0  0  0  0
 20 34  1  0  0  0  0
 20 35  1  0  0  0  0
 20 36  1  0  0  0  0
M  END
> <ConfClashScore>
0 

> <ConfOneFourInteractionScore>
-0.956443 

> <ConfScore>
0.382435 

> <ConfScorePBest>
0.0145835 

> <ConfTolerance>
0.270294 

$$$$
5FW.qm
 OpenBabel09182216093D

 36 37  0  0  0  0  0  0  0  0999 V2000
    4.4317    0.6123    2.4195 C   0  0  0  1  0  0  0  0  0  0  0  0
    5.6997    0.1113    0.3817 N   0  0  0  1  0  0  0  0  0  0  0  0
    4.8581   -0.4586    1.4233 C   0  0  0  1  0  0  0  0  0  0  0  0
    5.6198   -1.5571    2.1704 C   0  0  0  1  0  0  0  0  0  0  0  0
    4.7430   -2.3580    3.0955 C   0  0  0  1  0  0  0  0  0  0  0  0
    3.8458   -3.3232    2.7448 C   0  0  0  1  0  0  0  0  0  0  0  0
    3.2222   -3.8184    3.8613 N   0  0  0  1  0  0  0  0  0  0  0  0
    3.7241   -3.1911    4.9686 C   0  0  0  1  0  0  0  0  0  0  0  0
    3.4215   -3.3552    6.3232 C   0  0  0  1  0  0  0  0  0  0  0  0
    4.0916   -2.5579    7.2254 C   0  0  0  1  0  0  0  0  0  0  0  0
    5.0305   -1.6199    6.8076 C   0  0  0  1  0  0  0  0  0  0  0  0
    5.3340   -1.4612    5.4735 C   0  0  0  1  0  0  0  0  0  0  0  0
    4.6811   -2.2608    4.5291 C   0  0  0  1  0  0  0  0  0  0  0  0
    3.2806    0.5752    2.8460 O   0  0  0  1  0  0  0  0  0  0  0  0
    5.6532   -0.8537    7.7236 F   0  0  0  1  0  0  0  0  0  0  0  0
    5.2021    0.8902   -0.6011 C   0  0  0  1  0  0  0  0  0  0  0  0
    4.0324    1.2709   -0.5797 O   0  0  0  1  0  0  0  0  0  0  0  0
    6.1249    1.2831   -1.7326 C   0  0  0  1  0  0  0  0  0  0  0  0
    5.3266    1.5313    2.7759 N   0  0  0  1  0  0  0  0  0  0  0  0
    5.0835    2.6062    3.7263 C   0  0  0  1  0  0  0  0  0  0  0  0
    6.6613   -0.0773    0.3947 H   0  0  0  1  0  0  0  0  0  0  0  0
    3.9821   -0.8879    0.9837 H   0  0  0  1  0  0  0  0  0  0  0  0
    6.3966   -1.1007    2.7476 H   0  0  0  1  0  0  0  0  0  0  0  0
    6.0522   -2.2211    1.4513 H   0  0  0  1  0  0  0  0  0  0  0  0
    3.6612   -3.6384    1.7710 H   0  0  0  1  0  0  0  0  0  0  0  0
    2.5284   -4.5105    3.8653 H   0  0  0  1  0  0  0  0  0  0  0  0
    2.7172   -4.0526    6.6383 H   0  0  0  1  0  0  0  0  0  0  0  0
    3.8913   -2.6596    8.2408 H   0  0  0  1  0  0  0  0  0  0  0  0
    6.0382   -0.7575    5.1725 H   0  0  0  1  0  0  0  0  0  0  0  0
    6.4211    0.4079   -2.2722 H   0  0  0  1  0  0  0  0  0  0  0  0
    6.9922    1.7664   -1.3337 H   0  0  0  1  0  0  0  0  0  0  0  0
    5.6144    1.9530   -2.3925 H   0  0  0  1  0  0  0  0  0  0  0  0
    6.2159    1.4800    2.3675 H   0  0  0  1  0  0  0  0  0  0  0  0
    4.5228    2.2294    4.5560 H   0  0  0  1  0  0  0  0  0  0  0  0
    4.5304    3.3870    3.2474 H   0  0  0  1  0  0  0  0  0  0  0  0
    6.0187    2.9926    4.0742 H   0  0  0  1  0  0  0  0  0  0  0  0
  1  3  1  0  0  0  0
  1 14  2  0  0  0  0
  1 19  1  0  0  0  0
  2  3  1  0  0  0  0
  2 16  1  0  0  0  0
  2 21  1  0  0  0  0
  3  4  1  0  0  0  0
  3 22  1  0  0  0  0
  4  5  1  0  0  0  0
  4 23  1  0  0  0  0
  4 24  1  0  0  0  0
  5  6  4  0  0  0  0
  5 13  4  0  0  0  0
  6  7  4  0  0  0  0
  6 25  1  0  0  0  0
  7  8  4  0  0  0  0
  7 26  1  0  0  0  0
  8  9  4  0  0  0  0
  8 13  4  0  0  0  0
  9 10  4  0  0  0  0
  9 27  1  0  0  0  0
 10 11  4  0  0  0  0
 10 28  1  0  0  0  0
 11 12  4  0  0  0  0
 11 15  1  0  0  0  0
 12 13  4  0  0  0  0
 12 29  1  0  0  0  0
 16 17  2  0  0  0  0
 16 18  1  0  0  0  0
 18 30  1  0  0  0  0
 18 31  1  0  0  0  0
 18 32  1  0  0  0  0
 19 20  1  0  0  0  0
 19 33  1  0  0  0  0
 20 34  1  0  0  0  0
 20 35  1  0  0  0  0
 20 36  1  0  0  0  0
M  END
> <ConfClashScore>
0 

> <ConfOneFourInteractionScore>
-0.948581 

> <ConfScore>
0.382435 

> <ConfScorePBest>
0.0144805 

> <ConfTolerance>
0.416768 

$$$$
5FW.qm
 OpenBabel09182216093D

 36 37  0  0  0  0  0  0  0  0999 V2000
    6.0224    0.5118    0.8149 C   0  0  0  1  0  0  0  0  0  0  0  0
    3.7463   -0.1610    1.4957 N   0  0  0  1  0  0  0  0  0  0  0  0
    5.1542   -0.1450    1.8640 C   0  0  0  1  0  0  0  0  0  0  0  0
    5.6300   -1.5599    2.1660 C   0  0  0  1  0  0  0  0  0  0  0  0
    4.7475   -2.3536    3.0919 C   0  0  0  1  0  0  0  0  0  0  0  0
    3.8453   -3.3289    2.7368 C   0  0  0  1  0  0  0  0  0  0  0  0
    3.2109   -3.8263    3.8566 N   0  0  0  1  0  0  0  0  0  0  0  0
    3.7161   -3.1909    4.9752 C   0  0  0  1  0  0  0  0  0  0  0  0
    3.4156   -3.3627    6.3299 C   0  0  0  1  0  0  0  0  0  0  0  0
    4.0847   -2.5615    7.2504 C   0  0  0  1  0  0  0  0  0  0  0  0
    5.0297   -1.6260    6.7984 C   0  0  0  1  0  0  0  0  0  0  0  0
    5.3470   -1.4380    5.4666 C   0  0  0  1  0  0  0  0  0  0  0  0
    4.6798   -2.2432    4.5241 C   0  0  0  1  0  0  0  0  0  0  0  0
    6.9422    1.2596    1.1364 O   0  0  0  1  0  0  0  0  0  0  0  0
    5.6626   -0.8689    7.7151 F   0  0  0  1  0  0  0  0  0  0  0  0
    3.1287    0.9741    1.1564 C   0  0  0  1  0  0  0  0  0  0  0  0
    3.7207    2.0439    1.0200 O   0  0  0  1  0  0  0  0  0  0  0  0
    1.6308    0.8711    0.9444 C   0  0  0  1  0  0  0  0  0  0  0  0
    5.7595    0.2548   -0.4673 N   0  0  0  1  0  0  0  0  0  0  0  0
    6.5693    0.7036   -1.5901 C   0  0  0  1  0  0  0  0  0  0  0  0
    3.2503   -1.0062    1.4965 H   0  0  0  1  0  0  0  0  0  0  0  0
    5.2556    0.4234    2.7649 H   0  0  0  1  0  0  0  0  0  0  0  0
    6.6007   -1.4938    2.6113 H   0  0  0  1  0  0  0  0  0  0  0  0
    5.6976   -2.0903    1.2392 H   0  0  0  1  0  0  0  0  0  0  0  0
    3.6666   -3.6464    1.7627 H   0  0  0  1  0  0  0  0  0  0  0  0
    2.5158   -4.5171    3.8585 H   0  0  0  1  0  0  0  0  0  0  0  0
    2.7150   -4.0661    6.6395 H   0  0  0  1  0  0  0  0  0  0  0  0
    3.8862   -2.6550    8.2670 H   0  0  0  1  0  0  0  0  0  0  0  0
    6.0502   -0.7304    5.1725 H   0  0  0  1  0  0  0  0  0  0  0  0
    1.2559    1.8063    0.5842 H   0  0  0  1  0  0  0  0  0  0  0  0
    1.1554    0.6301    1.8722 H   0  0  0  1  0  0  0  0  0  0  0  0
    1.4242    0.1042    0.2274 H   0  0  0  1  0  0  0  0  0  0  0  0
    4.9608   -0.2763   -0.6685 H   0  0  0  1  0  0  0  0  0  0  0  0
    7.6049    0.5543   -1.3659 H   0  0  0  1  0  0  0  0  0  0  0  0
    6.3892    1.7435   -1.7663 H   0  0  0  1  0  0  0  0  0  0  0  0
    6.3094    0.1431   -2.4637 H   0  0  0  1  0  0  0  0  0  0  0  0
  1  3  1  0  0  0  0
  1 14  2  0  0  0  0
  1 19  1  0  0  0  0
  2  3  1  0  0  0  0
  2 16  1  0  0  0  0
  2 21  1  0  0  0  0
  3  4  1  0  0  0  0
  3 22  1  0  0  0  0
  4  5  1  0  0  0  0
  4 23  1  0  0  0  0
  4 24  1  0  0  0  0
  5  6  4  0  0  0  0
  5 13  4  0  0  0  0
  6  7  4  0  0  0  0
  6 25  1  0  0  0  0
  7  8  4  0  0  0  0
  7 26  1  0  0  0  0
  8  9  4  0  0  0  0
  8 13  4  0  0  0  0
  9 10  4  0  0  0  0
  9 27  1  0  0  0  0
 10 11  4  0  0  0  0
 10 28  1  0  0  0  0
 11 12  4  0  0  0  0
 11 15  1  0  0  0  0
 12 13  4  0  0  0  0
 12 29  1  0  0  0  0
 16 17  2  0  0  0  0
 16 18  1  0  0  0  0
 18 30  1  0  0  0  0
 18 31  1  0  0  0  0
 18 32  1  0  0  0  0
 19 20  1  0  0  0  0
 19 33  1  0  0  0  0
 20 34  1  0  0  0  0
 20 35  1  0  0  0  0
 20 36  1  0  0  0  0
M  END
> <ConfClashScore>
0 

> <ConfOneFourInteractionScore>
-0.960318 

> <ConfScore>
0.38854 

> <ConfScorePBest>
0.0143775 

> <ConfTolerance>
0.343268 

$$$$
5FW.qm
 OpenBabel09182216093D

 36 37  0  0  0  0  0  0  0  0999 V2000
    6.0707    0.6577    1.0994 C   0  0  0  1  0  0  0  0  0  0  0  0
    4.0214   -0.6289    0.5762 N   0  0  0  1  0  0  0  0  0  0  0  0
    5.0102   -0.2912    1.6036 C   0  0  0  1  0  0  0  0  0  0  0  0
    5.6300   -1.5599    2.1660 C   0  0  0  1  0  0  0  0  0  0  0  0
    4.7475   -2.3536    3.0919 C   0  0  0  1  0  0  0  0  0  0  0  0
    3.8453   -3.3289    2.7368 C   0  0  0  1  0  0  0  0  0  0  0  0
    3.2109   -3.8263    3.8566 N   0  0  0  1  0  0  0  0  0  0  0  0
    3.7161   -3.1909    4.9752 C   0  0  0  1  0  0  0  0  0  0  0  0
    3.4156   -3.3627    6.3299 C   0  0  0  1  0  0  0  0  0  0  0  0
    4.0847   -2.5615    7.2504 C   0  0  0  1  0  0  0  0  0  0  0  0
    5.0297   -1.6260    6.7984 C   0  0  0  1  0  0  0  0  0  0  0  0
    5.3470   -1.4380    5.4666 C   0  0  0  1  0  0  0  0  0  0  0  0
    4.6798   -2.2432    4.5241 C   0  0  0  1  0  0  0  0  0  0  0  0
    6.5977    1.5143    1.7839 O   0  0  0  1  0  0  0  0  0  0  0  0
    5.6626   -0.8689    7.7151 F   0  0  0  1  0  0  0  0  0  0  0  0
    3.4345    0.2593   -0.2527 C   0  0  0  1  0  0  0  0  0  0  0  0
    3.7423    1.4502   -0.2290 O   0  0  0  1  0  0  0  0  0  0  0  0
    2.3821   -0.2529   -1.2167 C   0  0  0  1  0  0  0  0  0  0  0  0
    6.4223    0.5134   -0.1814 N   0  0  0  1  0  0  0  0  0  0  0  0
    7.4186    1.3644   -0.8147 C   0  0  0  1  0  0  0  0  0  0  0  0
    3.7673   -1.5709    0.4841 H   0  0  0  1  0  0  0  0  0  0  0  0
    4.4992    0.1955    2.4080 H   0  0  0  1  0  0  0  0  0  0  0  0
    6.5121   -1.2852    2.7057 H   0  0  0  1  0  0  0  0  0  0  0  0
    5.8963   -2.1899    1.3432 H   0  0  0  1  0  0  0  0  0  0  0  0
    3.6666   -3.6464    1.7627 H   0  0  0  1  0  0  0  0  0  0  0  0
    2.5158   -4.5171    3.8585 H   0  0  0  1  0  0  0  0  0  0  0  0
    2.7150   -4.0661    6.6395 H   0  0  0  1  0  0  0  0  0  0  0  0
    3.8862   -2.6550    8.2670 H   0  0  0  1  0  0  0  0  0  0  0  0
    6.0502   -0.7304    5.1725 H   0  0  0  1  0  0  0  0  0  0  0  0
    2.8570   -0.7858   -2.0138 H   0  0  0  1  0  0  0  0  0  0  0  0
    1.8336    0.5737   -1.6177 H   0  0  0  1  0  0  0  0  0  0  0  0
    1.7131   -0.9080   -0.6989 H   0  0  0  1  0  0  0  0  0  0  0  0
    5.9945   -0.1900   -0.7130 H   0  0  0  1  0  0  0  0  0  0  0  0
    8.2205    1.5459   -0.1299 H   0  0  0  1  0  0  0  0  0  0  0  0
    6.9686    2.2949   -1.0912 H   0  0  0  1  0  0  0  0  0  0  0  0
    7.7992    0.8781   -1.6885 H   0  0  0  1  0  0  0  0  0  0  0  0
  1  3  1  0  0  0  0
  1 14  2  0  0  0  0
  1 19  1  0  0  0  0
  2  3  1  0  0  0  0
  2 16  1  0  0  0  0
  2 21  1  0  0  0  0
  3  4  1  0  0  0  0
  3 22  1  0  0  0  0
  4  5  1  0  0  0  0
  4 23  1  0  0  0  0
  4 24  1  0  0  0  0
  5  6  4  0  0  0  0
  5 13  4  0  0  0  0
  6  7  4  0  0  0  0
  6 25  1  0  0  0  0
  7  8  4  0  0  0  0
  7 26  1  0  0  0  0
  8  9  4  0  0  0  0
  8 13  4  0  0  0  0
  9 10  4  0  0  0  0
  9 27  1  0  0  0  0
 10 11  4  0  0  0  0
 10 28  1  0  0  0  0
 11 12  4  0  0  0  0
 11 15  1  0  0  0  0
 12 13  4  0  0  0  0
 12 29  1  0  0  0  0
 16 17  2  0  0  0  0
 16 18  1  0  0  0  0
 18 30  1  0  0  0  0
 18 31  1  0  0  0  0
 18 32  1  0  0  0  0
 19 20  1  0  0  0  0
 19 33  1  0  0  0  0
 20 34  1  0  0  0  0
 20 35  1  0  0  0  0
 20 36  1  0  0  0  0
M  END
> <ConfClashScore>
0 

> <ConfOneFourInteractionScore>
-0.956443 

> <ConfScore>
0.389813 

> <ConfScorePBest>
0.0142745 

> <ConfTolerance>
0.354495 

$$$$
5FW.qm
 OpenBabel09182216093D

 36 37  0  0  0  0  0  0  0  0999 V2000
    6.7703   -3.5844    1.2598 C   0  0  0  1  0  0  0  0  0  0  0  0
    7.7946   -1.3457    1.0710 N   0  0  0  1  0  0  0  0  0  0  0  0
    6.9614   -2.2201    1.8829 C   0  0  0  1  0  0  0  0  0  0  0  0
    5.6255   -1.5520    2.1639 C   0  0  0  1  0  0  0  0  0  0  0  0
    4.7424   -2.3585    3.0958 C   0  0  0  1  0  0  0  0  0  0  0  0
    3.8452   -3.3238    2.7453 C   0  0  0  1  0  0  0  0  0  0  0  0
    3.2217   -3.8188    3.8619 N   0  0  0  1  0  0  0  0  0  0  0  0
    3.7237   -3.1914    4.9692 C   0  0  0  1  0  0  0  0  0  0  0  0
    3.4212   -3.3554    6.3238 C   0  0  0  1  0  0  0  0  0  0  0  0
    4.0915   -2.5581    7.2258 C   0  0  0  1  0  0  0  0  0  0  0  0
    5.0302   -1.6201    6.8079 C   0  0  0  1  0  0  0  0  0  0  0  0
    5.3337   -1.4616    5.4737 C   0  0  0  1  0  0  0  0  0  0  0  0
    4.6806   -2.2612    4.5295 C   0  0  0  1  0  0  0  0  0  0  0  0
    6.6006   -4.5802    1.9616 O   0  0  0  1  0  0  0  0  0  0  0  0
    5.6531   -0.8538    7.7237 F   0  0  0  1  0  0  0  0  0  0  0  0
    8.9455   -1.8420    0.5808 C   0  0  0  1  0  0  0  0  0  0  0  0
    9.2570   -3.0189    0.7588 O   0  0  0  1  0  0  0  0  0  0  0  0
    9.8499   -0.9076   -0.1990 C   0  0  0  1  0  0  0  0  0  0  0  0
    6.7914   -3.6752   -0.0793 N   0  0  0  1  0  0  0  0  0  0  0  0
    6.7086   -4.9768   -0.7249 C   0  0  0  1  0  0  0  0  0  0  0  0
    7.5252   -0.4216    0.8865 H   0  0  0  1  0  0  0  0  0  0  0  0
    7.4494   -2.3640    2.8242 H   0  0  0  1  0  0  0  0  0  0  0  0
    5.1094   -1.4189    1.2361 H   0  0  0  1  0  0  0  0  0  0  0  0
    5.8094   -0.5972    2.6105 H   0  0  0  1  0  0  0  0  0  0  0  0
    3.6604   -3.6391    1.7716 H   0  0  0  1  0  0  0  0  0  0  0  0
    2.5278   -4.5109    3.8661 H   0  0  0  1  0  0  0  0  0  0  0  0
    2.7170   -4.0528    6.6390 H   0  0  0  1  0  0  0  0  0  0  0  0
    3.8912   -2.6596    8.2413 H   0  0  0  1  0  0  0  0  0  0  0  0
    6.0378   -0.7579    5.1726 H   0  0  0  1  0  0  0  0  0  0  0  0
   10.1940   -0.1245    0.4438 H   0  0  0  1  0  0  0  0  0  0  0  0
    9.3049   -0.4840   -1.0166 H   0  0  0  1  0  0  0  0  0  0  0  0
   10.6891   -1.4550   -0.5746 H   0  0  0  1  0  0  0  0  0  0  0  0
    6.8628   -2.8632   -0.6234 H   0  0  0  1  0  0  0  0  0  0  0  0
    6.1471   -5.6466   -0.1076 H   0  0  0  1  0  0  0  0  0  0  0  0
    7.6946   -5.3667   -0.8688 H   0  0  0  1  0  0  0  0  0  0  0  0
    6.2232   -4.8742   -1.6729 H   0  0  0  1  0  0  0  0  0  0  0  0
  1  3  1  0  0  0  0
  1 14  2  0  0  0  0
  1 19  1  0  0  0  0
  2  3  1  0  0  0  0
  2 16  1  0  0  0  0
  2 21  1  0  0  0  0
  3  4  1  0  0  0  0
  3 22  1  0  0  0  0
  4  5  1  0  0  0  0
  4 23  1  0  0  0  0
  4 24  1  0  0  0  0
  5  6  4  0  0  0  0
  5 13  4  0  0  0  0
  6  7  4  0  0  0  0
  6 25  1  0  0  0  0
  7  8  4  0  0  0  0
  7 26  1  0  0  0  0
  8  9  4  0  0  0  0
  8 13  4  0  0  0  0
  9 10  4  0  0  0  0
  9 27  1  0  0  0  0
 10 11  4  0  0  0  0
 10 28  1  0  0  0  0
 11 12  4  0  0  0  0
 11 15  1  0  0  0  0
 12 13  4  0  0  0  0
 12 29  1  0  0  0  0
 16 17  2  0  0  0  0
 16 18  1  0  0  0  0
 18 30  1  0  0  0  0
 18 31  1  0  0  0  0
 18 32  1  0  0  0  0
 19 20  1  0  0  0  0
 19 33  1  0  0  0  0
 20 34  1  0  0  0  0
 20 35  1  0  0  0  0
 20 36  1  0  0  0  0
M  END
> <ConfClashScore>
0 

> <ConfOneFourInteractionScore>
-0.956443 

> <ConfScore>
0.393395 

> <ConfScorePBest>
0.0141715 

> <ConfTolerance>
0.25 

$$$$
5FW.qm
 OpenBabel09182216093D

 36 37  0  0  0  0  0  0  0  0999 V2000
    5.6715   -0.0046    0.2013 C   0  0  0  1  0  0  0  0  0  0  0  0
    4.2784   -2.0131    0.1689 N   0  0  0  1  0  0  0  0  0  0  0  0
    4.8174   -0.9654    1.0232 C   0  0  0  1  0  0  0  0  0  0  0  0
    5.6300   -1.5599    2.1660 C   0  0  0  1  0  0  0  0  0  0  0  0
    4.7475   -2.3536    3.0919 C   0  0  0  1  0  0  0  0  0  0  0  0
    3.8453   -3.3289    2.7368 C   0  0  0  1  0  0  0  0  0  0  0  0
    3.2109   -3.8263    3.8566 N   0  0  0  1  0  0  0  0  0  0  0  0
    3.7161   -3.1909    4.9752 C   0  0  0  1  0  0  0  0  0  0  0  0
    3.4156   -3.3627    6.3299 C   0  0  0  1  0  0  0  0  0  0  0  0
    4.0847   -2.5615    7.2504 C   0  0  0  1  0  0  0  0  0  0  0  0
    5.0297   -1.6260    6.7984 C   0  0  0  1  0  0  0  0  0  0  0  0
    5.3470   -1.4380    5.4666 C   0  0  0  1  0  0  0  0  0  0  0  0
    4.6798   -2.2432    4.5241 C   0  0  0  1  0  0  0  0  0  0  0  0
    5.8506    1.1549    0.5715 O   0  0  0  1  0  0  0  0  0  0  0  0
    5.6626   -0.8689    7.7151 F   0  0  0  1  0  0  0  0  0  0  0  0
    3.4524   -1.7021   -0.8341 C   0  0  0  1  0  0  0  0  0  0  0  0
    3.0885   -0.5609   -1.0654 O   0  0  0  1  0  0  0  0  0  0  0  0
    2.9828   -2.8656   -1.6855 C   0  0  0  1  0  0  0  0  0  0  0  0
    6.2175   -0.4602   -0.9298 N   0  0  0  1  0  0  0  0  0  0  0  0
    7.0713    0.3672   -1.7691 C   0  0  0  1  0  0  0  0  0  0  0  0
    4.5219   -2.9486    0.3297 H   0  0  0  1  0  0  0  0  0  0  0  0
    4.0065   -0.4098    1.4459 H   0  0  0  1  0  0  0  0  0  0  0  0
    6.0933   -0.7678    2.7163 H   0  0  0  1  0  0  0  0  0  0  0  0
    6.3839   -2.2033    1.7628 H   0  0  0  1  0  0  0  0  0  0  0  0
    3.6666   -3.6464    1.7627 H   0  0  0  1  0  0  0  0  0  0  0  0
    2.5158   -4.5171    3.8585 H   0  0  0  1  0  0  0  0  0  0  0  0
    2.7150   -4.0661    6.6395 H   0  0  0  1  0  0  0  0  0  0  0  0
    3.8862   -2.6550    8.2670 H   0  0  0  1  0  0  0  0  0  0  0  0
    6.0502   -0.7304    5.1725 H   0  0  0  1  0  0  0  0  0  0  0  0
    2.3098   -3.4743   -1.1185 H   0  0  0  1  0  0  0  0  0  0  0  0
    3.8266   -3.4513   -1.9853 H   0  0  0  1  0  0  0  0  0  0  0  0
    2.4806   -2.4923   -2.5534 H   0  0  0  1  0  0  0  0  0  0  0  0
    6.0368   -1.3835   -1.2038 H   0  0  0  1  0  0  0  0  0  0  0  0
    6.7537    1.3871   -1.7061 H   0  0  0  1  0  0  0  0  0  0  0  0
    7.0034    0.0348   -2.7839 H   0  0  0  1  0  0  0  0  0  0  0  0
    8.0845    0.2881   -1.4344 H   0  0  0  1  0  0  0  0  0  0  0  0
  1  3  1  0  0  0  0
  1 14  2  0  0  0  0
  1 19  1  0  0  0  0
  2  3  1  0  0  0  0
  2 16  1  0  0  0  0
  2 21  1  0  0  0  0
  3  4  1  0  0  0  0
  3 22  1  0  0  0  0
  4  5  1  0  0  0  0
  4 23  1  0  0  0  0
  4 24  1  0  0  0  0
  5  6  4  0  0  0  0
  5 13  4  0  0  0  0
  6  7  4  0  0  0  0
  6 25  1  0  0  0  0
  7  8  4  0  0  0  0
  7 26  1  0  0  0  0
  8  9  4  0  0  0  0
  8 13  4  0  0  0  0
  9 10  4  0  0  0  0
  9 27  1  0  0  0  0
 10 11  4  0  0  0  0
 10 28  1  0  0  0  0
 11 12  4  0  0  0  0
 11 15  1  0  0  0  0
 12 13  4  0  0  0  0
 12 29  1  0  0  0  0
 16 17  2  0  0  0  0
 16 18  1  0  0  0  0
 18 30  1  0  0  0  0
 18 31  1  0  0  0  0
 18 32  1  0  0  0  0
 19 20  1  0  0  0  0
 19 33  1  0  0  0  0
 20 34  1  0  0  0  0
 20 35  1  0  0  0  0
 20 36  1  0  0  0  0
M  END
> <ConfClashScore>
0 

> <ConfOneFourInteractionScore>
-0.956443 

> <ConfScore>
0.395437 

> <ConfScorePBest>
0.0140685 

> <ConfTolerance>
0.278571 

$$$$
5FW.qm
 OpenBabel09182216093D

 36 37  0  0  0  0  0  0  0  0999 V2000
    4.9607    0.6381    3.1799 C   0  0  0  1  0  0  0  0  0  0  0  0
    5.8000    0.5365    0.8884 N   0  0  0  1  0  0  0  0  0  0  0  0
    5.0286   -0.1774    1.8949 C   0  0  0  1  0  0  0  0  0  0  0  0
    5.6300   -1.5599    2.1660 C   0  0  0  1  0  0  0  0  0  0  0  0
    4.7475   -2.3536    3.0919 C   0  0  0  1  0  0  0  0  0  0  0  0
    3.8453   -3.3289    2.7368 C   0  0  0  1  0  0  0  0  0  0  0  0
    3.2109   -3.8263    3.8566 N   0  0  0  1  0  0  0  0  0  0  0  0
    3.7161   -3.1909    4.9752 C   0  0  0  1  0  0  0  0  0  0  0  0
    3.4156   -3.3627    6.3299 C   0  0  0  1  0  0  0  0  0  0  0  0
    4.0847   -2.5615    7.2504 C   0  0  0  1  0  0  0  0  0  0  0  0
    5.0297   -1.6260    6.7984 C   0  0  0  1  0  0  0  0  0  0  0  0
    5.3470   -1.4380    5.4666 C   0  0  0  1  0  0  0  0  0  0  0  0
    4.6798   -2.2432    4.5241 C   0  0  0  1  0  0  0  0  0  0  0  0
    3.9096    0.7703    3.7859 O   0  0  0  1  0  0  0  0  0  0  0  0
    5.6626   -0.8689    7.7151 F   0  0  0  1  0  0  0  0  0  0  0  0
    5.4340    1.7374    0.4264 C   0  0  0  1  0  0  0  0  0  0  0  0
    4.4486    2.3416    0.8414 O   0  0  0  1  0  0  0  0  0  0  0  0
    6.3151    2.3218   -0.6544 C   0  0  0  1  0  0  0  0  0  0  0  0
    6.0998    1.2441    3.5268 N   0  0  0  1  0  0  0  0  0  0  0  0
    6.1612    2.0450    4.7403 C   0  0  0  1  0  0  0  0  0  0  0  0
    6.6161    0.1231    0.5368 H   0  0  0  1  0  0  0  0  0  0  0  0
    4.0303   -0.3155    1.5354 H   0  0  0  1  0  0  0  0  0  0  0  0
    6.5936   -1.4413    2.6158 H   0  0  0  1  0  0  0  0  0  0  0  0
    5.7304   -2.0865    1.2400 H   0  0  0  1  0  0  0  0  0  0  0  0
    3.6666   -3.6464    1.7627 H   0  0  0  1  0  0  0  0  0  0  0  0
    2.5158   -4.5171    3.8585 H   0  0  0  1  0  0  0  0  0  0  0  0
    2.7150   -4.0661    6.6395 H   0  0  0  1  0  0  0  0  0  0  0  0
    3.8862   -2.6550    8.2670 H   0  0  0  1  0  0  0  0  0  0  0  0
    6.0502   -0.7304    5.1725 H   0  0  0  1  0  0  0  0  0  0  0  0
    7.1597    1.6838   -0.8105 H   0  0  0  1  0  0  0  0  0  0  0  0
    6.6520    3.2919   -0.3537 H   0  0  0  1  0  0  0  0  0  0  0  0
    5.7572    2.4034   -1.5637 H   0  0  0  1  0  0  0  0  0  0  0  0
    6.8956    1.1490    2.9630 H   0  0  0  1  0  0  0  0  0  0  0  0
    5.6146    1.5558    5.5193 H   0  0  0  1  0  0  0  0  0  0  0  0
    5.7322    3.0074    4.5542 H   0  0  0  1  0  0  0  0  0  0  0  0
    7.1819    2.1608    5.0397 H   0  0  0  1  0  0  0  0  0  0  0  0
  1  3  1  0  0  0  0
  1 14  2  0  0  0  0
  1 19  1  0  0  0  0
  2  3  1  0  0  0  0
  2 16  1  0  0  0  0
  2 21  1  0  0  0  0
  3  4  1  0  0  0  0
  3 22  1  0  0  0  0
  4  5  1  0  0  0  0
  4 23  1  0  0  0  0
  4 24  1  0  0  0  0
  5  6  4  0  0  0  0
  5 13  4  0  0  0  0
  6  7  4  0  0  0  0
  6 25  1  0  0  0  0
  7  8  4  0  0  0  0
  7 26  1  0  0  0  0
  8  9  4  0  0  0  0
  8 13  4  0  0  0  0
  9 10  4  0  0  0  0
  9 27  1  0  0  0  0
 10 11  4  0  0  0  0
 10 28  1  0  0  0  0
 11 12  4  0  0  0  0
 11 15  1  0  0  0  0
 12 13  4  0  0  0  0
 12 29  1  0  0  0  0
 16 17  2  0  0  0  0
 16 18  1  0  0  0  0
 18 30  1  0  0  0  0
 18 31  1  0  0  0  0
 18 32  1  0  0  0  0
 19 20  1  0  0  0  0
 19 33  1  0  0  0  0
 20 34  1  0  0  0  0
 20 35  1  0  0  0  0
 20 36  1  0  0  0  0
M  END
> <ConfClashScore>
0 

> <ConfOneFourInteractionScore>
-0.960318 

> <ConfScore>
0.402585 

> <ConfScorePBest>
0.0139655 

> <ConfTolerance>
0.479373 

$$$$
5FW.qm
 OpenBabel09182216093D

 36 37  0  0  0  0  0  0  0  0999 V2000
    7.1055   -3.6283    1.9130 C   0  0  0  1  0  0  0  0  0  0  0  0
    7.9024   -1.4431    1.1775 N   0  0  0  1  0  0  0  0  0  0  0  0
    7.0344   -2.1211    2.1441 C   0  0  0  1  0  0  0  0  0  0  0  0
    5.6198   -1.5571    2.1704 C   0  0  0  1  0  0  0  0  0  0  0  0
    4.7430   -2.3580    3.0955 C   0  0  0  1  0  0  0  0  0  0  0  0
    3.8458   -3.3232    2.7448 C   0  0  0  1  0  0  0  0  0  0  0  0
    3.2222   -3.8184    3.8613 N   0  0  0  1  0  0  0  0  0  0  0  0
    3.7241   -3.1911    4.9686 C   0  0  0  1  0  0  0  0  0  0  0  0
    3.4215   -3.3552    6.3232 C   0  0  0  1  0  0  0  0  0  0  0  0
    4.0916   -2.5579    7.2254 C   0  0  0  1  0  0  0  0  0  0  0  0
    5.0305   -1.6199    6.8076 C   0  0  0  1  0  0  0  0  0  0  0  0
    5.3340   -1.4612    5.4735 C   0  0  0  1  0  0  0  0  0  0  0  0
    4.6811   -2.2608    4.5291 C   0  0  0  1  0  0  0  0  0  0  0  0
    7.1567   -4.4266    2.8309 O   0  0  0  1  0  0  0  0  0  0  0  0
    5.6532   -0.8537    7.7236 F   0  0  0  1  0  0  0  0  0  0  0  0
    9.2120   -1.7063    1.1519 C   0  0  0  1  0  0  0  0  0  0  0  0
    9.7292   -2.5719    1.8388 O   0  0  0  1  0  0  0  0  0  0  0  0
   10.0366   -0.8554    0.2057 C   0  0  0  1  0  0  0  0  0  0  0  0
    7.1120   -4.0956    0.6553 N   0  0  0  1  0  0  0  0  0  0  0  0
    7.1363   -5.5296    0.4086 C   0  0  0  1  0  0  0  0  0  0  0  0
    7.5215   -0.7953    0.5485 H   0  0  0  1  0  0  0  0  0  0  0  0
    7.4480   -1.9451    3.1152 H   0  0  0  1  0  0  0  0  0  0  0  0
    5.2104   -1.5907    1.1824 H   0  0  0  1  0  0  0  0  0  0  0  0
    5.6528   -0.5427    2.5090 H   0  0  0  1  0  0  0  0  0  0  0  0
    3.6612   -3.6384    1.7710 H   0  0  0  1  0  0  0  0  0  0  0  0
    2.5284   -4.5105    3.8653 H   0  0  0  1  0  0  0  0  0  0  0  0
    2.7172   -4.0526    6.6383 H   0  0  0  1  0  0  0  0  0  0  0  0
    3.8913   -2.6596    8.2408 H   0  0  0  1  0  0  0  0  0  0  0  0
    6.0382   -0.7575    5.1725 H   0  0  0  1  0  0  0  0  0  0  0  0
    9.6457   -0.9436   -0.7865 H   0  0  0  1  0  0  0  0  0  0  0  0
   11.0529   -1.1898    0.2194 H   0  0  0  1  0  0  0  0  0  0  0  0
    9.9929    0.1675    0.5163 H   0  0  0  1  0  0  0  0  0  0  0  0
    7.1003   -3.4698   -0.0989 H   0  0  0  1  0  0  0  0  0  0  0  0
    6.2038   -5.9596    0.7091 H   0  0  0  1  0  0  0  0  0  0  0  0
    7.9313   -5.9743    0.9701 H   0  0  0  1  0  0  0  0  0  0  0  0
    7.2919   -5.7092   -0.6346 H   0  0  0  1  0  0  0  0  0  0  0  0
  1  3  1  0  0  0  0
  1 14  2  0  0  0  0
  1 19  1  0  0  0  0
  2  3  1  0  0  0  0
  2 16  1  0  0  0  0
  2 21  1  0  0  0  0
  3  4  1  0  0  0  0
  3 22  1  0  0  0  0
  4  5  1  0  0  0  0
  4 23  1  0  0  0  0
  4 24  1  0  0  0  0
  5  6  4  0  0  0  0
  5 13  4  0  0  0  0
  6  7  4  0  0  0  0
  6 25  1  0  0  0  0
  7  8  4  0  0  0  0
  7 26  1  0  0  0  0
  8  9  4  0  0  0  0
  8 13  4  0  0  0  0
  9 10  4  0  0  0  0
  9 27  1  0  0  0  0
 10 11  4  0  0  0  0
 10 28  1  0  0  0  0
 11 12  4  0  0  0  0
 11 15  1  0  0  0  0
 12 13  4  0  0  0  0
 12 29  1  0  0  0  0
 16 17  2  0  0  0  0
 16 18  1  0  0  0  0
 18 30  1  0  0  0  0
 18 31  1  0  0  0  0
 18 32  1  0  0  0  0
 19 20  1  0  0  0  0
 19 33  1  0  0  0  0
 20 34  1  0  0  0  0
 20 35  1  0  0  0  0
 20 36  1  0  0  0  0
M  END
> <ConfClashScore>
0 

> <ConfOneFourInteractionScore>
-0.956443 

> <ConfScore>
0.40461 

> <ConfScorePBest>
0.0138625 

> <ConfTolerance>
0.343277 

$$$$
5FW.qm
 OpenBabel09182216093D

 36 37  0  0  0  0  0  0  0  0999 V2000
    6.1248    0.8180    1.3078 C   0  0  0  1  0  0  0  0  0  0  0  0
    3.8410   -0.1591    1.1466 N   0  0  0  1  0  0  0  0  0  0  0  0
    5.1094   -0.1519    1.9019 C   0  0  0  1  0  0  0  0  0  0  0  0
    5.6317   -1.5584    2.1640 C   0  0  0  1  0  0  0  0  0  0  0  0
    4.7473   -2.3538    3.0920 C   0  0  0  1  0  0  0  0  0  0  0  0
    3.8451   -3.3291    2.7369 C   0  0  0  1  0  0  0  0  0  0  0  0
    3.2108   -3.8264    3.8568 N   0  0  0  1  0  0  0  0  0  0  0  0
    3.7159   -3.1911    4.9753 C   0  0  0  1  0  0  0  0  0  0  0  0
    3.4156   -3.3627    6.3301 C   0  0  0  1  0  0  0  0  0  0  0  0
    4.0847   -2.5615    7.2505 C   0  0  0  1  0  0  0  0  0  0  0  0
    5.0296   -1.6260    6.7985 C   0  0  0  1  0  0  0  0  0  0  0  0
    5.3469   -1.4381    5.4667 C   0  0  0  1  0  0  0  0  0  0  0  0
    4.6797   -2.2433    4.5242 C   0  0  0  1  0  0  0  0  0  0  0  0
    7.0265    1.2949    1.9919 O   0  0  0  1  0  0  0  0  0  0  0  0
    5.6625   -0.8690    7.7151 F   0  0  0  1  0  0  0  0  0  0  0  0
    3.0353    0.9081    0.9819 C   0  0  0  1  0  0  0  0  0  0  0  0
    3.2492    2.0240    1.4480 O   0  0  0  1  0  0  0  0  0  0  0  0
    1.8019    0.6177    0.1489 C   0  0  0  1  0  0  0  0  0  0  0  0
    5.9646    1.1047    0.0150 N   0  0  0  1  0  0  0  0  0  0  0  0
    6.7581    2.1209   -0.6600 C   0  0  0  1  0  0  0  0  0  0  0  0
    3.5642   -1.0038    0.7339 H   0  0  0  1  0  0  0  0  0  0  0  0
    4.8722    0.2433    2.8676 H   0  0  0  1  0  0  0  0  0  0  0  0
    6.6052   -1.4841    2.6018 H   0  0  0  1  0  0  0  0  0  0  0  0
    5.6986   -2.0764    1.2302 H   0  0  0  1  0  0  0  0  0  0  0  0
    3.6664   -3.6466    1.7628 H   0  0  0  1  0  0  0  0  0  0  0  0
    2.5157   -4.5173    3.8587 H   0  0  0  1  0  0  0  0  0  0  0  0
    2.7150   -4.0662    6.6398 H   0  0  0  1  0  0  0  0  0  0  0  0
    3.8862   -2.6551    8.2671 H   0  0  0  1  0  0  0  0  0  0  0  0
    6.0500   -0.7305    5.1726 H   0  0  0  1  0  0  0  0  0  0  0  0
    2.0979    0.2534   -0.8126 H   0  0  0  1  0  0  0  0  0  0  0  0
    1.2326    1.5158    0.0300 H   0  0  0  1  0  0  0  0  0  0  0  0
    1.2049   -0.1210    0.6417 H   0  0  0  1  0  0  0  0  0  0  0  0
    5.2891    0.6140   -0.4981 H   0  0  0  1  0  0  0  0  0  0  0  0
    6.7789    1.9184   -1.7105 H   0  0  0  1  0  0  0  0  0  0  0  0
    7.7563    2.1078   -0.2747 H   0  0  0  1  0  0  0  0  0  0  0  0
    6.3227    3.0836   -0.4911 H   0  0  0  1  0  0  0  0  0  0  0  0
  1  3  1  0  0  0  0
  1 14  2  0  0  0  0
  1 19  1  0  0  0  0
  2  3  1  0  0  0  0
  2 16  1  0  0  0  0
  2 21  1  0  0  0  0
  3  4  1  0  0  0  0
  3 22  1  0  0  0  0
  4  5  1  0  0  0  0
  4 23  1  0  0  0  0
  4 24  1  0  0  0  0
  5  6  4  0  0  0  0
  5 13  4  0  0  0  0
  6  7  4  0  0  0  0
  6 25  1  0  0  0  0
  7  8  4  0  0  0  0
  7 26  1  0  0  0  0
  8  9  4  0  0  0  0
  8 13  4  0  0  0  0
  9 10  4  0  0  0  0
  9 27  1  0  0  0  0
 10 11  4  0  0  0  0
 10 28  1  0  0  0  0
 11 12  4  0  0  0  0
 11 15  1  0  0  0  0
 12 13  4  0  0  0  0
 12 29  1  0  0  0  0
 16 17  2  0  0  0  0
 16 18  1  0  0  0  0
 18 30  1  0  0  0  0
 18 31  1  0  0  0  0
 18 32  1  0  0  0  0
 19 20  1  0  0  0  0
 19 33  1  0  0  0  0
 20 34  1  0  0  0  0
 20 35  1  0  0  0  0
 20 36  1  0  0  0  0
M  END
> <ConfClashScore>
0 

> <ConfOneFourInteractionScore>
-0.956443 

> <ConfScore>
0.410337 

> <ConfScorePBest>
0.0137595 

> <ConfTolerance>
0.331466 

$$$$
5FW.qm
 OpenBabel09182216093D

 36 37  0  0  0  0  0  0  0  0999 V2000
    6.2131    0.5432    1.0357 C   0  0  0  1  0  0  0  0  0  0  0  0
    3.9649    0.2098    1.8437 N   0  0  0  1  0  0  0  0  0  0  0  0
    5.3630   -0.0639    2.1347 C   0  0  0  1  0  0  0  0  0  0  0  0
    5.6300   -1.5599    2.1660 C   0  0  0  1  0  0  0  0  0  0  0  0
    4.7475   -2.3536    3.0919 C   0  0  0  1  0  0  0  0  0  0  0  0
    3.8453   -3.3289    2.7368 C   0  0  0  1  0  0  0  0  0  0  0  0
    3.2109   -3.8263    3.8566 N   0  0  0  1  0  0  0  0  0  0  0  0
    3.7161   -3.1909    4.9752 C   0  0  0  1  0  0  0  0  0  0  0  0
    3.4156   -3.3627    6.3299 C   0  0  0  1  0  0  0  0  0  0  0  0
    4.0847   -2.5615    7.2504 C   0  0  0  1  0  0  0  0  0  0  0  0
    5.0297   -1.6260    6.7984 C   0  0  0  1  0  0  0  0  0  0  0  0
    5.3470   -1.4380    5.4666 C   0  0  0  1  0  0  0  0  0  0  0  0
    4.6798   -2.2432    4.5241 C   0  0  0  1  0  0  0  0  0  0  0  0
    7.3939    0.8307    1.2270 O   0  0  0  1  0  0  0  0  0  0  0  0
    5.6626   -0.8689    7.7151 F   0  0  0  1  0  0  0  0  0  0  0  0
    3.4602    1.4275    2.0617 C   0  0  0  1  0  0  0  0  0  0  0  0
    4.1144    2.3431    2.5328 O   0  0  0  1  0  0  0  0  0  0  0  0
    2.0032    1.6138    1.6851 C   0  0  0  1  0  0  0  0  0  0  0  0
    5.5939    0.7402   -0.1390 N   0  0  0  1  0  0  0  0  0  0  0  0
    6.2909    1.2539   -1.3087 C   0  0  0  1  0  0  0  0  0  0  0  0
    3.3916   -0.5005    1.4868 H   0  0  0  1  0  0  0  0  0  0  0  0
    5.6381    0.3632    3.0764 H   0  0  0  1  0  0  0  0  0  0  0  0
    6.6451   -1.7078    2.4702 H   0  0  0  1  0  0  0  0  0  0  0  0
    5.4951   -1.9401    1.1750 H   0  0  0  1  0  0  0  0  0  0  0  0
    3.6666   -3.6464    1.7627 H   0  0  0  1  0  0  0  0  0  0  0  0
    2.5158   -4.5171    3.8585 H   0  0  0  1  0  0  0  0  0  0  0  0
    2.7150   -4.0661    6.6395 H   0  0  0  1  0  0  0  0  0  0  0  0
    3.8862   -2.6550    8.2670 H   0  0  0  1  0  0  0  0  0  0  0  0
    6.0502   -0.7304    5.1725 H   0  0  0  1  0  0  0  0  0  0  0  0
    1.8577    1.3225    0.6659 H   0  0  0  1  0  0  0  0  0  0  0  0
    1.7331    2.6423    1.8039 H   0  0  0  1  0  0  0  0  0  0  0  0
    1.3908    1.0080    2.3199 H   0  0  0  1  0  0  0  0  0  0  0  0
    4.6393    0.5306   -0.2115 H   0  0  0  1  0  0  0  0  0  0  0  0
    7.2086    0.7198   -1.4408 H   0  0  0  1  0  0  0  0  0  0  0  0
    6.5006    2.2940   -1.1703 H   0  0  0  1  0  0  0  0  0  0  0  0
    5.6760    1.1257   -2.1749 H   0  0  0  1  0  0  0  0  0  0  0  0
  1  3  1  0  0  0  0
  1 14  2  0  0  0  0
  1 19  1  0  0  0  0
  2  3  1  0  0  0  0
  2 16  1  0  0  0  0
  2 21  1  0  0  0  0
  3  4  1  0  0  0  0
  3 22  1  0  0  0  0
  4  5  1  0  0  0  0
  4 23  1  0  0  0  0
  4 24  1  0  0  0  0
  5  6  4  0  0  0  0
  5 13  4  0  0  0  0
  6  7  4  0  0  0  0
  6 25  1  0  0  0  0
  7  8  4  0  0  0  0
  7 26  1  0  0  0  0
  8  9  4  0  0  0  0
  8 13  4  0  0  0  0
  9 10  4  0  0  0  0
  9 27  1  0  0  0  0
 10 11  4  0  0  0  0
 10 28  1  0  0  0  0
 11 12  4  0  0  0  0
 11 15  1  0  0  0  0
 12 13  4  0  0  0  0
 12 29  1  0  0  0  0
 16 17  2  0  0  0  0
 16 18  1  0  0  0  0
 18 30  1  0  0  0  0
 18 31  1  0  0  0  0
 18 32  1  0  0  0  0
 19 20  1  0  0  0  0
 19 33  1  0  0  0  0
 20 34  1  0  0  0  0
 20 35  1  0  0  0  0
 20 36  1  0  0  0  0
M  END
> <ConfClashScore>
0 

> <ConfOneFourInteractionScore>
-0.94165 

> <ConfScore>
0.411833 

> <ConfScorePBest>
0.0136565 

> <ConfTolerance>
0.385581 

$$$$
5FW.qm
 OpenBabel09182216093D

 36 37  0  0  0  0  0  0  0  0999 V2000
    6.5664   -3.5371    1.0305 C   0  0  0  1  0  0  0  0  0  0  0  0
    7.8877   -1.5146    1.1290 N   0  0  0  1  0  0  0  0  0  0  0  0
    6.9262   -2.3115    1.8776 C   0  0  0  1  0  0  0  0  0  0  0  0
    5.6300   -1.5599    2.1660 C   0  0  0  1  0  0  0  0  0  0  0  0
    4.7475   -2.3536    3.0919 C   0  0  0  1  0  0  0  0  0  0  0  0
    3.8453   -3.3289    2.7368 C   0  0  0  1  0  0  0  0  0  0  0  0
    3.2109   -3.8263    3.8566 N   0  0  0  1  0  0  0  0  0  0  0  0
    3.7161   -3.1909    4.9752 C   0  0  0  1  0  0  0  0  0  0  0  0
    3.4156   -3.3627    6.3299 C   0  0  0  1  0  0  0  0  0  0  0  0
    4.0847   -2.5615    7.2504 C   0  0  0  1  0  0  0  0  0  0  0  0
    5.0297   -1.6260    6.7984 C   0  0  0  1  0  0  0  0  0  0  0  0
    5.3470   -1.4380    5.4666 C   0  0  0  1  0  0  0  0  0  0  0  0
    4.6798   -2.2432    4.5241 C   0  0  0  1  0  0  0  0  0  0  0  0
    6.4716   -4.6519    1.5421 O   0  0  0  1  0  0  0  0  0  0  0  0
    5.6626   -0.8689    7.7151 F   0  0  0  1  0  0  0  0  0  0  0  0
    9.0979   -1.9928    0.7727 C   0  0  0  1  0  0  0  0  0  0  0  0
    9.4475   -3.1287    1.0824 O   0  0  0  1  0  0  0  0  0  0  0  0
   10.0140   -1.0888   -0.0207 C   0  0  0  1  0  0  0  0  0  0  0  0
    6.3595   -3.3579   -0.2772 N   0  0  0  1  0  0  0  0  0  0  0  0
    6.0273   -4.4584   -1.1697 C   0  0  0  1  0  0  0  0  0  0  0  0
    7.6475   -0.5990    0.8752 H   0  0  0  1  0  0  0  0  0  0  0  0
    7.3549   -2.6366    2.8025 H   0  0  0  1  0  0  0  0  0  0  0  0
    5.1106   -1.3904    1.2460 H   0  0  0  1  0  0  0  0  0  0  0  0
    5.8631   -0.6209    2.6228 H   0  0  0  1  0  0  0  0  0  0  0  0
    3.6666   -3.6464    1.7627 H   0  0  0  1  0  0  0  0  0  0  0  0
    2.5158   -4.5171    3.8585 H   0  0  0  1  0  0  0  0  0  0  0  0
    2.7150   -4.0661    6.6395 H   0  0  0  1  0  0  0  0  0  0  0  0
    3.8862   -2.6550    8.2670 H   0  0  0  1  0  0  0  0  0  0  0  0
    6.0502   -0.7304    5.1725 H   0  0  0  1  0  0  0  0  0  0  0  0
   10.1018   -0.1449    0.4756 H   0  0  0  1  0  0  0  0  0  0  0  0
    9.6081   -0.9404   -0.9995 H   0  0  0  1  0  0  0  0  0  0  0  0
   10.9804   -1.5412   -0.0996 H   0  0  0  1  0  0  0  0  0  0  0  0
    6.4340   -2.4540   -0.6484 H   0  0  0  1  0  0  0  0  0  0  0  0
    5.7661   -4.0712   -2.1323 H   0  0  0  1  0  0  0  0  0  0  0  0
    5.1994   -5.0050   -0.7687 H   0  0  0  1  0  0  0  0  0  0  0  0
    6.8721   -5.1082   -1.2641 H   0  0  0  1  0  0  0  0  0  0  0  0
  1  3  1  0  0  0  0
  1 14  2  0  0  0  0
  1 19  1  0  0  0  0
  2  3  1  0  0  0  0
  2 16  1  0  0  0  0
  2 21  1  0  0  0  0
  3  4  1  0  0  0  0
  3 22  1  0  0  0  0
  4  5  1  0  0  0  0
  4 23  1  0  0  0  0
  4 24  1  0  0  0  0
  5  6  4  0  0  0  0
  5 13  4  0  0  0  0
  6  7  4  0  0  0  0
  6 25  1  0  0  0  0
  7  8  4  0  0  0  0
  7 26  1  0  0  0  0
  8  9  4  0  0  0  0
  8 13  4  0  0  0  0
  9 10  4  0  0  0  0
  9 27  1  0  0  0  0
 10 11  4  0  0  0  0
 10 28  1  0  0  0  0
 11 12  4  0  0  0  0
 11 15  1  0  0  0  0
 12 13  4  0  0  0  0
 12 29  1  0  0  0  0
 16 17  2  0  0  0  0
 16 18  1  0  0  0  0
 18 30  1  0  0  0  0
 18 31  1  0  0  0  0
 18 32  1  0  0  0  0
 19 20  1  0  0  0  0
 19 33  1  0  0  0  0
 20 34  1  0  0  0  0
 20 35  1  0  0  0  0
 20 36  1  0  0  0  0
M  END
> <ConfClashScore>
0 

> <ConfOneFourInteractionScore>
-0.960318 

> <ConfScore>
0.426618 

> <ConfScorePBest>
0.0135535 

> <ConfTolerance>
0.40234 

$$$$
5FW.qm
 OpenBabel09182216093D

 36 37  0  0  0  0  0  0  0  0999 V2000
    6.3918   -1.1012   -0.2293 C   0  0  0  1  0  0  0  0  0  0  0  0
    6.0161   -3.3882    0.5857 N   0  0  0  1  0  0  0  0  0  0  0  0
    5.5843   -1.9818    0.7087 C   0  0  0  1  0  0  0  0  0  0  0  0
    5.6191   -1.5578    2.1712 C   0  0  0  1  0  0  0  0  0  0  0  0
    4.7431   -2.3579    3.0954 C   0  0  0  1  0  0  0  0  0  0  0  0
    3.8459   -3.3232    2.7447 C   0  0  0  1  0  0  0  0  0  0  0  0
    3.2222   -3.8183    3.8612 N   0  0  0  1  0  0  0  0  0  0  0  0
    3.7241   -3.1910    4.9686 C   0  0  0  1  0  0  0  0  0  0  0  0
    3.4215   -3.3552    6.3232 C   0  0  0  1  0  0  0  0  0  0  0  0
    4.0917   -2.5579    7.2253 C   0  0  0  1  0  0  0  0  0  0  0  0
    5.0305   -1.6199    6.8076 C   0  0  0  1  0  0  0  0  0  0  0  0
    5.3341   -1.4612    5.4734 C   0  0  0  1  0  0  0  0  0  0  0  0
    4.6811   -2.2608    4.5291 C   0  0  0  1  0  0  0  0  0  0  0  0
    5.8709   -0.1668   -0.8326 O   0  0  0  1  0  0  0  0  0  0  0  0
    5.6533   -0.8537    7.7236 F   0  0  0  1  0  0  0  0  0  0  0  0
    5.9673   -4.0264   -0.6443 C   0  0  0  1  0  0  0  0  0  0  0  0
    5.5036   -3.4234   -1.5951 O   0  0  0  1  0  0  0  0  0  0  0  0
    6.4859   -5.4323   -0.7589 C   0  0  0  1  0  0  0  0  0  0  0  0
    7.6858   -1.4122   -0.3473 N   0  0  0  1  0  0  0  0  0  0  0  0
    8.5561   -0.7627   -1.3161 C   0  0  0  1  0  0  0  0  0  0  0  0
    6.3379   -3.8717    1.3750 H   0  0  0  1  0  0  0  0  0  0  0  0
    4.5641   -1.9276    0.3907 H   0  0  0  1  0  0  0  0  0  0  0  0
    5.3093   -0.5351    2.2257 H   0  0  0  1  0  0  0  0  0  0  0  0
    6.6284   -1.6441    2.5159 H   0  0  0  1  0  0  0  0  0  0  0  0
    3.6612   -3.6383    1.7709 H   0  0  0  1  0  0  0  0  0  0  0  0
    2.5284   -4.5104    3.8652 H   0  0  0  1  0  0  0  0  0  0  0  0
    2.7172   -4.0526    6.6382 H   0  0  0  1  0  0  0  0  0  0  0  0
    3.8913   -2.6596    8.2408 H   0  0  0  1  0  0  0  0  0  0  0  0
    6.0382   -0.7575    5.1725 H   0  0  0  1  0  0  0  0  0  0  0  0
    6.0952   -6.0236    0.0428 H   0  0  0  1  0  0  0  0  0  0  0  0
    7.5546   -5.4233   -0.7071 H   0  0  0  1  0  0  0  0  0  0  0  0
    6.1771   -5.8511   -1.6939 H   0  0  0  1  0  0  0  0  0  0  0  0
    8.0619   -2.1016    0.2389 H   0  0  0  1  0  0  0  0  0  0  0  0
    8.6096    0.2844   -1.1027 H   0  0  0  1  0  0  0  0  0  0  0  0
    8.1630   -0.9062   -2.3009 H   0  0  0  1  0  0  0  0  0  0  0  0
    9.5358   -1.1889   -1.2571 H   0  0  0  1  0  0  0  0  0  0  0  0
  1  3  1  0  0  0  0
  1 14  2  0  0  0  0
  1 19  1  0  0  0  0
  2  3  1  0  0  0  0
  2 16  1  0  0  0  0
  2 21  1  0  0  0  0
  3  4  1  0  0  0  0
  3 22  1  0  0  0  0
  4  5  1  0  0  0  0
  4 23  1  0  0  0  0
  4 24  1  0  0  0  0
  5  6  4  0  0  0  0
  5 13  4  0  0  0  0
  6  7  4  0  0  0  0
  6 25  1  0  0  0  0
  7  8  4  0  0  0  0
  7 26  1  0  0  0  0
  8  9  4  0  0  0  0
  8 13  4  0  0  0  0
  9 10  4  0  0  0  0
  9 27  1  0  0  0  0
 10 11  4  0  0  0  0
 10 28  1  0  0  0  0
 11 12  4  0  0  0  0
 11 15  1  0  0  0  0
 12 13  4  0  0  0  0
 12 29  1  0  0  0  0
 16 17  2  0  0  0  0
 16 18  1  0  0  0  0
 18 30  1  0  0  0  0
 18 31  1  0  0  0  0
 18 32  1  0  0  0  0
 19 20  1  0  0  0  0
 19 33  1  0  0  0  0
 20 34  1  0  0  0  0
 20 35  1  0  0  0  0
 20 36  1  0  0  0  0
M  END
> <ConfClashScore>
0 

> <ConfOneFourInteractionScore>
-0.949001 

> <ConfScore>
0.436277 

> <ConfScorePBest>
0.0134505 

> <ConfTolerance>
0.334586 

$$$$
5FW.qm
 OpenBabel09182216093D

 36 37  0  0  0  0  0  0  0  0999 V2000
    7.6778   -1.6751    0.7355 C   0  0  0  1  0  0  0  0  0  0  0  0
    7.7874   -2.2785    3.0937 N   0  0  0  1  0  0  0  0  0  0  0  0
    6.9428   -2.2937    1.9087 C   0  0  0  1  0  0  0  0  0  0  0  0
    5.6300   -1.5599    2.1660 C   0  0  0  1  0  0  0  0  0  0  0  0
    4.7475   -2.3536    3.0919 C   0  0  0  1  0  0  0  0  0  0  0  0
    3.8453   -3.3289    2.7368 C   0  0  0  1  0  0  0  0  0  0  0  0
    3.2109   -3.8263    3.8566 N   0  0  0  1  0  0  0  0  0  0  0  0
    3.7161   -3.1909    4.9752 C   0  0  0  1  0  0  0  0  0  0  0  0
    3.4156   -3.3627    6.3299 C   0  0  0  1  0  0  0  0  0  0  0  0
    4.0847   -2.5615    7.2504 C   0  0  0  1  0  0  0  0  0  0  0  0
    5.0297   -1.6260    6.7984 C   0  0  0  1  0  0  0  0  0  0  0  0
    5.3470   -1.4380    5.4666 C   0  0  0  1  0  0  0  0  0  0  0  0
    4.6798   -2.2432    4.5241 C   0  0  0  1  0  0  0  0  0  0  0  0
    7.5423   -2.1138   -0.4059 O   0  0  0  1  0  0  0  0  0  0  0  0
    5.6626   -0.8689    7.7151 F   0  0  0  1  0  0  0  0  0  0  0  0
    8.6261   -3.2768    3.3853 C   0  0  0  1  0  0  0  0  0  0  0  0
    8.7586   -4.2703    2.6718 O   0  0  0  1  0  0  0  0  0  0  0  0
    9.4207   -3.1167    4.6667 C   0  0  0  1  0  0  0  0  0  0  0  0
    8.4720   -0.6333    1.0287 N   0  0  0  1  0  0  0  0  0  0  0  0
    9.2571    0.0552    0.0150 C   0  0  0  1  0  0  0  0  0  0  0  0
    7.7393   -1.5092    3.6989 H   0  0  0  1  0  0  0  0  0  0  0  0
    6.7118   -3.3084    1.6598 H   0  0  0  1  0  0  0  0  0  0  0  0
    5.1215   -1.4141    1.2359 H   0  0  0  1  0  0  0  0  0  0  0  0
    5.8405   -0.6098    2.6108 H   0  0  0  1  0  0  0  0  0  0  0  0
    3.6666   -3.6464    1.7627 H   0  0  0  1  0  0  0  0  0  0  0  0
    2.5158   -4.5171    3.8585 H   0  0  0  1  0  0  0  0  0  0  0  0
    2.7150   -4.0661    6.6395 H   0  0  0  1  0  0  0  0  0  0  0  0
    3.8862   -2.6550    8.2670 H   0  0  0  1  0  0  0  0  0  0  0  0
    6.0502   -0.7304    5.1725 H   0  0  0  1  0  0  0  0  0  0  0  0
    8.7488   -3.0134    5.4931 H   0  0  0  1  0  0  0  0  0  0  0  0
   10.0369   -2.2447    4.5973 H   0  0  0  1  0  0  0  0  0  0  0  0
   10.0370   -3.9788    4.8140 H   0  0  0  1  0  0  0  0  0  0  0  0
    8.5250   -0.3257    1.9577 H   0  0  0  1  0  0  0  0  0  0  0  0
    9.4545   -0.6119   -0.7980 H   0  0  0  1  0  0  0  0  0  0  0  0
   10.1827    0.3810    0.4415 H   0  0  0  1  0  0  0  0  0  0  0  0
    8.7113    0.9026   -0.3438 H   0  0  0  1  0  0  0  0  0  0  0  0
  1  3  1  0  0  0  0
  1 14  2  0  0  0  0
  1 19  1  0  0  0  0
  2  3  1  0  0  0  0
  2 16  1  0  0  0  0
  2 21  1  0  0  0  0
  3  4  1  0  0  0  0
  3 22  1  0  0  0  0
  4  5  1  0  0  0  0
  4 23  1  0  0  0  0
  4 24  1  0  0  0  0
  5  6  4  0  0  0  0
  5 13  4  0  0  0  0
  6  7  4  0  0  0  0
  6 25  1  0  0  0  0
  7  8  4  0  0  0  0
  7 26  1  0  0  0  0
  8  9  4  0  0  0  0
  8 13  4  0  0  0  0
  9 10  4  0  0  0  0
  9 27  1  0  0  0  0
 10 11  4  0  0  0  0
 10 28  1  0  0  0  0
 11 12  4  0  0  0  0
 11 15  1  0  0  0  0
 12 13  4  0  0  0  0
 12 29  1  0  0  0  0
 16 17  2  0  0  0  0
 16 18  1  0  0  0  0
 18 30  1  0  0  0  0
 18 31  1  0  0  0  0
 18 32  1  0  0  0  0
 19 20  1  0  0  0  0
 19 33  1  0  0  0  0
 20 34  1  0  0  0  0
 20 35  1  0  0  0  0
 20 36  1  0  0  0  0
M  END
> <ConfClashScore>
0 

> <ConfOneFourInteractionScore>
-0.956443 

> <ConfScore>
0.436556 

> <ConfScorePBest>
0.0133475 

> <ConfTolerance>
0.312593 

$$$$
5FW.qm
 OpenBabel09182216093D

 36 37  0  0  0  0  0  0  0  0999 V2000
    7.9359   -1.4519    1.0550 C   0  0  0  1  0  0  0  0  0  0  0  0
    7.7454   -1.7641    3.4669 N   0  0  0  1  0  0  0  0  0  0  0  0
    7.0819   -2.0198    2.1856 C   0  0  0  1  0  0  0  0  0  0  0  0
    5.6300   -1.5599    2.1660 C   0  0  0  1  0  0  0  0  0  0  0  0
    4.7475   -2.3536    3.0919 C   0  0  0  1  0  0  0  0  0  0  0  0
    3.8453   -3.3289    2.7368 C   0  0  0  1  0  0  0  0  0  0  0  0
    3.2109   -3.8263    3.8566 N   0  0  0  1  0  0  0  0  0  0  0  0
    3.7161   -3.1909    4.9752 C   0  0  0  1  0  0  0  0  0  0  0  0
    3.4156   -3.3627    6.3299 C   0  0  0  1  0  0  0  0  0  0  0  0
    4.0847   -2.5615    7.2504 C   0  0  0  1  0  0  0  0  0  0  0  0
    5.0297   -1.6260    6.7984 C   0  0  0  1  0  0  0  0  0  0  0  0
    5.3470   -1.4380    5.4666 C   0  0  0  1  0  0  0  0  0  0  0  0
    4.6798   -2.2432    4.5241 C   0  0  0  1  0  0  0  0  0  0  0  0
    7.9981   -1.9373   -0.0626 O   0  0  0  1  0  0  0  0  0  0  0  0
    5.6626   -0.8689    7.7151 F   0  0  0  1  0  0  0  0  0  0  0  0
    8.9277   -2.3026    3.7784 C   0  0  0  1  0  0  0  0  0  0  0  0
    9.4989   -3.1214    3.0630 O   0  0  0  1  0  0  0  0  0  0  0  0
    9.5380   -1.8401    5.0871 C   0  0  0  1  0  0  0  0  0  0  0  0
    8.6420   -0.3567    1.3499 N   0  0  0  1  0  0  0  0  0  0  0  0
    9.6405    0.1917    0.4443 C   0  0  0  1  0  0  0  0  0  0  0  0
    7.3066   -1.1776    4.1180 H   0  0  0  1  0  0  0  0  0  0  0  0
    7.0647   -3.0806    2.0470 H   0  0  0  1  0  0  0  0  0  0  0  0
    5.2546   -1.6597    1.1690 H   0  0  0  1  0  0  0  0  0  0  0  0
    5.5944   -0.5317    2.4599 H   0  0  0  1  0  0  0  0  0  0  0  0
    3.6666   -3.6464    1.7627 H   0  0  0  1  0  0  0  0  0  0  0  0
    2.5158   -4.5171    3.8585 H   0  0  0  1  0  0  0  0  0  0  0  0
    2.7150   -4.0661    6.6395 H   0  0  0  1  0  0  0  0  0  0  0  0
    3.8862   -2.6550    8.2670 H   0  0  0  1  0  0  0  0  0  0  0  0
    6.0502   -0.7304    5.1725 H   0  0  0  1  0  0  0  0  0  0  0  0
   10.3007   -2.5275    5.3882 H   0  0  0  1  0  0  0  0  0  0  0  0
    8.7785   -1.7985    5.8396 H   0  0  0  1  0  0  0  0  0  0  0  0
    9.9656   -0.8679    4.9571 H   0  0  0  1  0  0  0  0  0  0  0  0
    8.4820    0.0930    2.2058 H   0  0  0  1  0  0  0  0  0  0  0  0
   10.6183   -0.0772    0.7856 H   0  0  0  1  0  0  0  0  0  0  0  0
    9.5522    1.2578    0.4198 H   0  0  0  1  0  0  0  0  0  0  0  0
    9.4851   -0.2023   -0.5383 H   0  0  0  1  0  0  0  0  0  0  0  0
  1  3  1  0  0  0  0
  1 14  2  0  0  0  0
  1 19  1  0  0  0  0
  2  3  1  0  0  0  0
  2 16  1  0  0  0  0
  2 21  1  0  0  0  0
  3  4  1  0  0  0  0
  3 22  1  0  0  0  0
  4  5  1  0  0  0  0
  4 23  1  0  0  0  0
  4 24  1  0  0  0  0
  5  6  4  0  0  0  0
  5 13  4  0  0  0  0
  6  7  4  0  0  0  0
  6 25  1  0  0  0  0
  7  8  4  0  0  0  0
  7 26  1  0  0  0  0
  8  9  4  0  0  0  0
  8 13  4  0  0  0  0
  9 10  4  0  0  0  0
  9 27  1  0  0  0  0
 10 11  4  0  0  0  0
 10 28  1  0  0  0  0
 11 12  4  0  0  0  0
 11 15  1  0  0  0  0
 12 13  4  0  0  0  0
 12 29  1  0  0  0  0
 16 17  2  0  0  0  0
 16 18  1  0  0  0  0
 18 30  1  0  0  0  0
 18 31  1  0  0  0  0
 18 32  1  0  0  0  0
 19 20  1  0  0  0  0
 19 33  1  0  0  0  0
 20 34  1  0  0  0  0
 20 35  1  0  0  0  0
 20 36  1  0  0  0  0
M  END
> <ConfClashScore>
0 

> <ConfOneFourInteractionScore>
-0.956443 

> <ConfScore>
0.443223 

> <ConfScorePBest>
0.0132445 

> <ConfTolerance>
0.428509 

$$$$
5FW.qm
 OpenBabel09182216093D

 36 37  0  0  0  0  0  0  0  0999 V2000
    5.9465   -0.1317    0.1434 C   0  0  0  1  0  0  0  0  0  0  0  0
    3.9886   -1.5276    0.3909 N   0  0  0  1  0  0  0  0  0  0  0  0
    4.9385   -0.7053    1.1253 C   0  0  0  1  0  0  0  0  0  0  0  0
    5.6198   -1.5571    2.1704 C   0  0  0  1  0  0  0  0  0  0  0  0
    4.7430   -2.3580    3.0955 C   0  0  0  1  0  0  0  0  0  0  0  0
    3.8458   -3.3232    2.7448 C   0  0  0  1  0  0  0  0  0  0  0  0
    3.2222   -3.8184    3.8613 N   0  0  0  1  0  0  0  0  0  0  0  0
    3.7241   -3.1911    4.9686 C   0  0  0  1  0  0  0  0  0  0  0  0
    3.4215   -3.3552    6.3232 C   0  0  0  1  0  0  0  0  0  0  0  0
    4.0916   -2.5579    7.2254 C   0  0  0  1  0  0  0  0  0  0  0  0
    5.0305   -1.6199    6.8076 C   0  0  0  1  0  0  0  0  0  0  0  0
    5.3340   -1.4612    5.4735 C   0  0  0  1  0  0  0  0  0  0  0  0
    4.6811   -2.2608    4.5291 C   0  0  0  1  0  0  0  0  0  0  0  0
    6.3270    1.0330    0.2281 O   0  0  0  1  0  0  0  0  0  0  0  0
    5.6532   -0.8537    7.7236 F   0  0  0  1  0  0  0  0  0  0  0  0
    3.1244   -1.0090   -0.4862 C   0  0  0  1  0  0  0  0  0  0  0  0
    3.0962    0.1775   -0.7687 O   0  0  0  1  0  0  0  0  0  0  0  0
    2.1626   -1.9928   -1.1237 C   0  0  0  1  0  0  0  0  0  0  0  0
    6.3818   -0.9753   -0.8047 N   0  0  0  1  0  0  0  0  0  0  0  0
    7.3372   -0.5715   -1.8255 C   0  0  0  1  0  0  0  0  0  0  0  0
    3.9826   -2.4954    0.5450 H   0  0  0  1  0  0  0  0  0  0  0  0
    4.4268    0.0987    1.6118 H   0  0  0  1  0  0  0  0  0  0  0  0
    6.2141   -0.9058    2.7765 H   0  0  0  1  0  0  0  0  0  0  0  0
    6.2566   -2.2464    1.6562 H   0  0  0  1  0  0  0  0  0  0  0  0
    3.6612   -3.6384    1.7710 H   0  0  0  1  0  0  0  0  0  0  0  0
    2.5284   -4.5105    3.8653 H   0  0  0  1  0  0  0  0  0  0  0  0
    2.7172   -4.0526    6.6383 H   0  0  0  1  0  0  0  0  0  0  0  0
    3.8913   -2.6596    8.2408 H   0  0  0  1  0  0  0  0  0  0  0  0
    6.0382   -0.7575    5.1725 H   0  0  0  1  0  0  0  0  0  0  0  0
    1.1605   -1.6342   -1.0147 H   0  0  0  1  0  0  0  0  0  0  0  0
    2.2550   -2.9441   -0.6427 H   0  0  0  1  0  0  0  0  0  0  0  0
    2.3938   -2.0943   -2.1635 H   0  0  0  1  0  0  0  0  0  0  0  0
    6.0447   -1.8955   -0.8100 H   0  0  0  1  0  0  0  0  0  0  0  0
    7.5077    0.4827   -1.7581 H   0  0  0  1  0  0  0  0  0  0  0  0
    6.9464   -0.8082   -2.7930 H   0  0  0  1  0  0  0  0  0  0  0  0
    8.2600   -1.0921   -1.6759 H   0  0  0  1  0  0  0  0  0  0  0  0
  1  3  1  0  0  0  0
  1 14  2  0  0  0  0
  1 19  1  0  0  0  0
  2  3  1  0  0  0  0
  2 16  1  0  0  0  0
  2 21  1  0  0  0  0
  3  4  1  0  0  0  0
  3 22  1  0  0  0  0
  4  5  1  0  0  0  0
  4 23  1  0  0  0  0
  4 24  1  0  0  0  0
  5  6  4  0  0  0  0
  5 13  4  0  0  0  0
  6  7  4  0  0  0  0
  6 25  1  0  0  0  0
  7  8  4  0  0  0  0
  7 26  1  0  0  0  0
  8  9  4  0  0  0  0
  8 13  4  0  0  0  0
  9 10  4  0  0  0  0
  9 27  1  0  0  0  0
 10 11  4  0  0  0  0
 10 28  1  0  0  0  0
 11 12  4  0  0  0  0
 11 15  1  0  0  0  0
 12 13  4  0  0  0  0
 12 29  1  0  0  0  0
 16 17  2  0  0  0  0
 16 18  1  0  0  0  0
 18 30  1  0  0  0  0
 18 31  1  0  0  0  0
 18 32  1  0  0  0  0
 19 20  1  0  0  0  0
 19 33  1  0  0  0  0
 20 34  1  0  0  0  0
 20 35  1  0  0  0  0
 20 36  1  0  0  0  0
M  END
> <ConfClashScore>
0 

> <ConfOneFourInteractionScore>
-0.960318 

> <ConfScore>
0.455146 

> <ConfScorePBest>
0.0131415 

> <ConfTolerance>
0.547657 

$$$$
5FW.qm
 OpenBabel09182216093D

 36 37  0  0  0  0  0  0  0  0999 V2000
    5.9015    0.6660    0.9281 C   0  0  0  1  0  0  0  0  0  0  0  0
    3.6820   -0.2834    1.3515 N   0  0  0  1  0  0  0  0  0  0  0  0
    5.0597   -0.1662    1.8687 C   0  0  0  1  0  0  0  0  0  0  0  0
    5.6198   -1.5571    2.1704 C   0  0  0  1  0  0  0  0  0  0  0  0
    4.7430   -2.3580    3.0955 C   0  0  0  1  0  0  0  0  0  0  0  0
    3.8458   -3.3232    2.7448 C   0  0  0  1  0  0  0  0  0  0  0  0
    3.2222   -3.8184    3.8613 N   0  0  0  1  0  0  0  0  0  0  0  0
    3.7241   -3.1911    4.9686 C   0  0  0  1  0  0  0  0  0  0  0  0
    3.4215   -3.3552    6.3232 C   0  0  0  1  0  0  0  0  0  0  0  0
    4.0916   -2.5579    7.2254 C   0  0  0  1  0  0  0  0  0  0  0  0
    5.0305   -1.6199    6.8076 C   0  0  0  1  0  0  0  0  0  0  0  0
    5.3340   -1.4612    5.4735 C   0  0  0  1  0  0  0  0  0  0  0  0
    4.6811   -2.2608    4.5291 C   0  0  0  1  0  0  0  0  0  0  0  0
    5.8359    0.5026   -0.2895 O   0  0  0  1  0  0  0  0  0  0  0  0
    5.6532   -0.8537    7.7236 F   0  0  0  1  0  0  0  0  0  0  0  0
    2.6518    0.4077    1.8818 C   0  0  0  1  0  0  0  0  0  0  0  0
    2.8080    1.1217    2.8689 O   0  0  0  1  0  0  0  0  0  0  0  0
    1.2921    0.2779    1.2233 C   0  0  0  1  0  0  0  0  0  0  0  0
    6.7207    1.5864    1.4610 N   0  0  0  1  0  0  0  0  0  0  0  0
    7.5349    2.4706    0.6407 C   0  0  0  1  0  0  0  0  0  0  0  0
    3.5097   -0.8842    0.5966 H   0  0  0  1  0  0  0  0  0  0  0  0
    5.0122    0.3598    2.7993 H   0  0  0  1  0  0  0  0  0  0  0  0
    6.5821   -1.4456    2.6248 H   0  0  0  1  0  0  0  0  0  0  0  0
    5.7199   -2.0912    1.2486 H   0  0  0  1  0  0  0  0  0  0  0  0
    3.6612   -3.6384    1.7710 H   0  0  0  1  0  0  0  0  0  0  0  0
    2.5284   -4.5105    3.8653 H   0  0  0  1  0  0  0  0  0  0  0  0
    2.7172   -4.0526    6.6383 H   0  0  0  1  0  0  0  0  0  0  0  0
    3.8913   -2.6596    8.2408 H   0  0  0  1  0  0  0  0  0  0  0  0
    6.0382   -0.7575    5.1725 H   0  0  0  1  0  0  0  0  0  0  0  0
    1.3349    0.6809    0.2330 H   0  0  0  1  0  0  0  0  0  0  0  0
    0.5659    0.8160    1.7960 H   0  0  0  1  0  0  0  0  0  0  0  0
    1.0161   -0.7548    1.1762 H   0  0  0  1  0  0  0  0  0  0  0  0
    6.7721    1.6656    2.4365 H   0  0  0  1  0  0  0  0  0  0  0  0
    7.9572    1.9163   -0.1713 H   0  0  0  1  0  0  0  0  0  0  0  0
    8.3212    2.8855    1.2360 H   0  0  0  1  0  0  0  0  0  0  0  0
    6.9250    3.2602    0.2540 H   0  0  0  1  0  0  0  0  0  0  0  0
  1  3  1  0  0  0  0
  1 14  2  0  0  0  0
  1 19  1  0  0  0  0
  2  3  1  0  0  0  0
  2 16  1  0  0  0  0
  2 21  1  0  0  0  0
  3  4  1  0  0  0  0
  3 22  1  0  0  0  0
  4  5  1  0  0  0  0
  4 23  1  0  0  0  0
  4 24  1  0  0  0  0
  5  6  4  0  0  0  0
  5 13  4  0  0  0  0
  6  7  4  0  0  0  0
  6 25  1  0  0  0  0
  7  8  4  0  0  0  0
  7 26  1  0  0  0  0
  8  9  4  0  0  0  0
  8 13  4  0  0  0  0
  9 10  4  0  0  0  0
  9 27  1  0  0  0  0
 10 11  4  0  0  0  0
 10 28  1  0  0  0  0
 11 12  4  0  0  0  0
 11 15  1  0  0  0  0
 12 13  4  0  0  0  0
 12 29  1  0  0  0  0
 16 17  2  0  0  0  0
 16 18  1  0  0  0  0
 18 30  1  0  0  0  0
 18 31  1  0  0  0  0
 18 32  1  0  0  0  0
 19 20  1  0  0  0  0
 19 33  1  0  0  0  0
 20 34  1  0  0  0  0
 20 35  1  0  0  0  0
 20 36  1  0  0  0  0
M  END
> <ConfClashScore>
0 

> <ConfOneFourInteractionScore>
-0.985807 

> <ConfScore>
0.458006 

> <ConfScorePBest>
0.0130385 

> <ConfTolerance>
0.288015 

$$$$
5FW.qm
 OpenBabel09182216093D

 36 37  0  0  0  0  0  0  0  0999 V2000
    4.1887    0.4143    2.5590 C   0  0  0  1  0  0  0  0  0  0  0  0
    5.9801    0.4864    0.8870 N   0  0  0  1  0  0  0  0  0  0  0  0
    4.9702   -0.3599    1.5066 C   0  0  0  1  0  0  0  0  0  0  0  0
    5.6300   -1.5599    2.1660 C   0  0  0  1  0  0  0  0  0  0  0  0
    4.7475   -2.3536    3.0919 C   0  0  0  1  0  0  0  0  0  0  0  0
    3.8453   -3.3289    2.7368 C   0  0  0  1  0  0  0  0  0  0  0  0
    3.2109   -3.8263    3.8566 N   0  0  0  1  0  0  0  0  0  0  0  0
    3.7161   -3.1909    4.9752 C   0  0  0  1  0  0  0  0  0  0  0  0
    3.4156   -3.3627    6.3299 C   0  0  0  1  0  0  0  0  0  0  0  0
    4.0847   -2.5615    7.2504 C   0  0  0  1  0  0  0  0  0  0  0  0
    5.0297   -1.6260    6.7984 C   0  0  0  1  0  0  0  0  0  0  0  0
    5.3470   -1.4380    5.4666 C   0  0  0  1  0  0  0  0  0  0  0  0
    4.6798   -2.2432    4.5241 C   0  0  0  1  0  0  0  0  0  0  0  0
    3.0203    0.1381    2.8274 O   0  0  0  1  0  0  0  0  0  0  0  0
    5.6626   -0.8689    7.7151 F   0  0  0  1  0  0  0  0  0  0  0  0
    5.6802    1.6780    0.3344 C   0  0  0  1  0  0  0  0  0  0  0  0
    4.5562    2.1384    0.2475 O   0  0  0  1  0  0  0  0  0  0  0  0
    6.8948    2.4319   -0.1916 C   0  0  0  1  0  0  0  0  0  0  0  0
    4.8969    1.4011    3.1422 N   0  0  0  1  0  0  0  0  0  0  0  0
    4.3700    2.0843    4.3142 C   0  0  0  1  0  0  0  0  0  0  0  0
    6.9103    0.1785    0.8714 H   0  0  0  1  0  0  0  0  0  0  0  0
    4.2883   -0.7118    0.7609 H   0  0  0  1  0  0  0  0  0  0  0  0
    6.4679   -1.2072    2.7303 H   0  0  0  1  0  0  0  0  0  0  0  0
    5.9710   -2.2157    1.3923 H   0  0  0  1  0  0  0  0  0  0  0  0
    3.6666   -3.6464    1.7627 H   0  0  0  1  0  0  0  0  0  0  0  0
    2.5158   -4.5171    3.8585 H   0  0  0  1  0  0  0  0  0  0  0  0
    2.7150   -4.0661    6.6395 H   0  0  0  1  0  0  0  0  0  0  0  0
    3.8862   -2.6550    8.2670 H   0  0  0  1  0  0  0  0  0  0  0  0
    6.0502   -0.7304    5.1725 H   0  0  0  1  0  0  0  0  0  0  0  0
    6.5893    3.3894   -0.5588 H   0  0  0  1  0  0  0  0  0  0  0  0
    7.3451    1.8730   -0.9851 H   0  0  0  1  0  0  0  0  0  0  0  0
    7.6030    2.5631    0.5996 H   0  0  0  1  0  0  0  0  0  0  0  0
    5.7686    1.6593    2.7764 H   0  0  0  1  0  0  0  0  0  0  0  0
    3.9486    3.0231    4.0209 H   0  0  0  1  0  0  0  0  0  0  0  0
    5.1612    2.2519    5.0147 H   0  0  0  1  0  0  0  0  0  0  0  0
    3.6127    1.4801    4.7685 H   0  0  0  1  0  0  0  0  0  0  0  0
  1  3  1  0  0  0  0
  1 14  2  0  0  0  0
  1 19  1  0  0  0  0
  2  3  1  0  0  0  0
  2 16  1  0  0  0  0
  2 21  1  0  0  0  0
  3  4  1  0  0  0  0
  3 22  1  0  0  0  0
  4  5  1  0  0  0  0
  4 23  1  0  0  0  0
  4 24  1  0  0  0  0
  5  6  4  0  0  0  0
  5 13  4  0  0  0  0
  6  7  4  0  0  0  0
  6 25  1  0  0  0  0
  7  8  4  0  0  0  0
  7 26  1  0  0  0  0
  8  9  4  0  0  0  0
  8 13  4  0  0  0  0
  9 10  4  0  0  0  0
  9 27  1  0  0  0  0
 10 11  4  0  0  0  0
 10 28  1  0  0  0  0
 11 12  4  0  0  0  0
 11 15  1  0  0  0  0
 12 13  4  0  0  0  0
 12 29  1  0  0  0  0
 16 17  2  0  0  0  0
 16 18  1  0  0  0  0
 18 30  1  0  0  0  0
 18 31  1  0  0  0  0
 18 32  1  0  0  0  0
 19 20  1  0  0  0  0
 19 33  1  0  0  0  0
 20 34  1  0  0  0  0
 20 35  1  0  0  0  0
 20 36  1  0  0  0  0
M  END
> <ConfClashScore>
0 

> <ConfOneFourInteractionScore>
-0.949394 

> <ConfScore>
0.46752 

> <ConfScorePBest>
0.0129355 

> <ConfTolerance>
0.78504 

$$$$
5FW.qm
 OpenBabel09182216093D

 36 37  0  0  0  0  0  0  0  0999 V2000
    7.5962   -3.1783    2.2769 C   0  0  0  1  0  0  0  0  0  0  0  0
    7.9521   -0.8370    1.7779 N   0  0  0  1  0  0  0  0  0  0  0  0
    7.1048   -1.7591    2.5192 C   0  0  0  1  0  0  0  0  0  0  0  0
    5.6300   -1.5599    2.1660 C   0  0  0  1  0  0  0  0  0  0  0  0
    4.7475   -2.3536    3.0919 C   0  0  0  1  0  0  0  0  0  0  0  0
    3.8453   -3.3289    2.7368 C   0  0  0  1  0  0  0  0  0  0  0  0
    3.2109   -3.8263    3.8566 N   0  0  0  1  0  0  0  0  0  0  0  0
    3.7161   -3.1909    4.9752 C   0  0  0  1  0  0  0  0  0  0  0  0
    3.4156   -3.3627    6.3299 C   0  0  0  1  0  0  0  0  0  0  0  0
    4.0847   -2.5615    7.2504 C   0  0  0  1  0  0  0  0  0  0  0  0
    5.0297   -1.6260    6.7984 C   0  0  0  1  0  0  0  0  0  0  0  0
    5.3470   -1.4380    5.4666 C   0  0  0  1  0  0  0  0  0  0  0  0
    4.6798   -2.2432    4.5241 C   0  0  0  1  0  0  0  0  0  0  0  0
    7.3747   -4.0866    3.0568 O   0  0  0  1  0  0  0  0  0  0  0  0
    5.6626   -0.8689    7.7151 F   0  0  0  1  0  0  0  0  0  0  0  0
    9.2851   -0.8677    1.8623 C   0  0  0  1  0  0  0  0  0  0  0  0
    9.8994   -1.7640    2.4393 O   0  0  0  1  0  0  0  0  0  0  0  0
   10.0140    0.2832    1.1964 C   0  0  0  1  0  0  0  0  0  0  0  0
    8.2952   -3.4425    1.1719 N   0  0  0  1  0  0  0  0  0  0  0  0
    8.8092   -4.7536    0.8048 C   0  0  0  1  0  0  0  0  0  0  0  0
    7.5302   -0.1704    1.1964 H   0  0  0  1  0  0  0  0  0  0  0  0
    7.2153   -1.5534    3.5634 H   0  0  0  1  0  0  0  0  0  0  0  0
    5.4635   -1.8833    1.1597 H   0  0  0  1  0  0  0  0  0  0  0  0
    5.3856   -0.5218    2.2526 H   0  0  0  1  0  0  0  0  0  0  0  0
    3.6666   -3.6464    1.7627 H   0  0  0  1  0  0  0  0  0  0  0  0
    2.5158   -4.5171    3.8585 H   0  0  0  1  0  0  0  0  0  0  0  0
    2.7150   -4.0661    6.6395 H   0  0  0  1  0  0  0  0  0  0  0  0
    3.8862   -2.6550    8.2670 H   0  0  0  1  0  0  0  0  0  0  0  0
    6.0502   -0.7304    5.1725 H   0  0  0  1  0  0  0  0  0  0  0  0
    9.5362    1.2053    1.4538 H   0  0  0  1  0  0  0  0  0  0  0  0
    9.9900    0.1536    0.1345 H   0  0  0  1  0  0  0  0  0  0  0  0
   11.0302    0.3028    1.5309 H   0  0  0  1  0  0  0  0  0  0  0  0
    8.4762   -2.6976    0.5613 H   0  0  0  1  0  0  0  0  0  0  0  0
    8.0403   -5.4868    0.9309 H   0  0  0  1  0  0  0  0  0  0  0  0
    9.6413   -4.9984    1.4314 H   0  0  0  1  0  0  0  0  0  0  0  0
    9.1240   -4.7394   -0.2177 H   0  0  0  1  0  0  0  0  0  0  0  0
  1  3  1  0  0  0  0
  1 14  2  0  0  0  0
  1 19  1  0  0  0  0
  2  3  1  0  0  0  0
  2 16  1  0  0  0  0
  2 21  1  0  0  0  0
  3  4  1  0  0  0  0
  3 22  1  0  0  0  0
  4  5  1  0  0  0  0
  4 23  1  0  0  0  0
  4 24  1  0  0  0  0
  5  6  4  0  0  0  0
  5 13  4  0  0  0  0
  6  7  4  0  0  0  0
  6 25  1  0  0  0  0
  7  8  4  0  0  0  0
  7 26  1  0  0  0  0
  8  9  4  0  0  0  0
  8 13  4  0  0  0  0
  9 10  4  0  0  0  0
  9 27  1  0  0  0  0
 10 11  4  0  0  0  0
 10 28  1  0  0  0  0
 11 12  4  0  0  0  0
 11 15  1  0  0  0  0
 12 13  4  0  0  0  0
 12 29  1  0  0  0  0
 16 17  2  0  0  0  0
 16 18  1  0  0  0  0
 18 30  1  0  0  0  0
 18 31  1  0  0  0  0
 18 32  1  0  0  0  0
 19 20  1  0  0  0  0
 19 33  1  0  0  0  0
 20 34  1  0  0  0  0
 20 35  1  0  0  0  0
 20 36  1  0  0  0  0
M  END
> <ConfClashScore>
0 

> <ConfOneFourInteractionScore>
-0.960318 

> <ConfScore>
0.473443 

> <ConfScorePBest>
0.0128325 

> <ConfTolerance>
0.612482 

$$$$
5FW.qm
 OpenBabel09182216093D

 36 37  0  0  0  0  0  0  0  0999 V2000
    5.9844   -0.6371   -0.1291 C   0  0  0  1  0  0  0  0  0  0  0  0
    4.9794   -2.8389    0.1758 N   0  0  0  1  0  0  0  0  0  0  0  0
    5.0881   -1.5024    0.7413 C   0  0  0  1  0  0  0  0  0  0  0  0
    5.6198   -1.5571    2.1704 C   0  0  0  1  0  0  0  0  0  0  0  0
    4.7430   -2.3580    3.0955 C   0  0  0  1  0  0  0  0  0  0  0  0
    3.8458   -3.3232    2.7448 C   0  0  0  1  0  0  0  0  0  0  0  0
    3.2222   -3.8184    3.8613 N   0  0  0  1  0  0  0  0  0  0  0  0
    3.7241   -3.1911    4.9686 C   0  0  0  1  0  0  0  0  0  0  0  0
    3.4215   -3.3552    6.3232 C   0  0  0  1  0  0  0  0  0  0  0  0
    4.0916   -2.5579    7.2254 C   0  0  0  1  0  0  0  0  0  0  0  0
    5.0305   -1.6199    6.8076 C   0  0  0  1  0  0  0  0  0  0  0  0
    5.3340   -1.4612    5.4735 C   0  0  0  1  0  0  0  0  0  0  0  0
    4.6811   -2.2608    4.5291 C   0  0  0  1  0  0  0  0  0  0  0  0
    5.8751    0.5846   -0.0330 O   0  0  0  1  0  0  0  0  0  0  0  0
    5.6532   -0.8537    7.7236 F   0  0  0  1  0  0  0  0  0  0  0  0
    4.7390   -3.0541   -1.1643 C   0  0  0  1  0  0  0  0  0  0  0  0
    4.5949   -2.1071   -1.9197 O   0  0  0  1  0  0  0  0  0  0  0  0
    4.6724   -4.4898   -1.5966 C   0  0  0  1  0  0  0  0  0  0  0  0
    6.8416   -1.2451   -0.9507 N   0  0  0  1  0  0  0  0  0  0  0  0
    7.6858   -0.5055   -1.8823 C   0  0  0  1  0  0  0  0  0  0  0  0
    5.0807   -3.6129    0.7684 H   0  0  0  1  0  0  0  0  0  0  0  0
    4.1163   -1.0554    0.7660 H   0  0  0  1  0  0  0  0  0  0  0  0
    5.6887   -0.5578    2.5466 H   0  0  0  1  0  0  0  0  0  0  0  0
    6.5934   -2.0008    2.1548 H   0  0  0  1  0  0  0  0  0  0  0  0
    3.6612   -3.6384    1.7710 H   0  0  0  1  0  0  0  0  0  0  0  0
    2.5284   -4.5105    3.8653 H   0  0  0  1  0  0  0  0  0  0  0  0
    2.7172   -4.0526    6.6383 H   0  0  0  1  0  0  0  0  0  0  0  0
    3.8913   -2.6596    8.2408 H   0  0  0  1  0  0  0  0  0  0  0  0
    6.0382   -0.7575    5.1725 H   0  0  0  1  0  0  0  0  0  0  0  0
    3.8458   -4.9697   -1.1156 H   0  0  0  1  0  0  0  0  0  0  0  0
    5.5803   -4.9865   -1.3248 H   0  0  0  1  0  0  0  0  0  0  0  0
    4.5434   -4.5369   -2.6578 H   0  0  0  1  0  0  0  0  0  0  0  0
    6.9064   -2.2226   -0.9275 H   0  0  0  1  0  0  0  0  0  0  0  0
    8.3953    0.0789   -1.3346 H   0  0  0  1  0  0  0  0  0  0  0  0
    7.0768    0.1408   -2.4792 H   0  0  0  1  0  0  0  0  0  0  0  0
    8.2046   -1.1937   -2.5165 H   0  0  0  1  0  0  0  0  0  0  0  0
  1  3  1  0  0  0  0
  1 14  2  0  0  0  0
  1 19  1  0  0  0  0
  2  3  1  0  0  0  0
  2 16  1  0  0  0  0
  2 21  1  0  0  0  0
  3  4  1  0  0  0  0
  3 22  1  0  0  0  0
  4  5  1  0  0  0  0
  4 23  1  0  0  0  0
  4 24  1  0  0  0  0
  5  6  4  0  0  0  0
  5 13  4  0  0  0  0
  6  7  4  0  0  0  0
  6 25  1  0  0  0  0
  7  8  4  0  0  0  0
  7 26  1  0  0  0  0
  8  9  4  0  0  0  0
  8 13  4  0  0  0  0
  9 10  4  0  0  0  0
  9 27  1  0  0  0  0
 10 11  4  0  0  0  0
 10 28  1  0  0  0  0
 11 12  4  0  0  0  0
 11 15  1  0  0  0  0
 12 13  4  0  0  0  0
 12 29  1  0  0  0  0
 16 17  2  0  0  0  0
 16 18  1  0  0  0  0
 18 30  1  0  0  0  0
 18 31  1  0  0  0  0
 18 32  1  0  0  0  0
 19 20  1  0  0  0  0
 19 33  1  0  0  0  0
 20 34  1  0  0  0  0
 20 35  1  0  0  0  0
 20 36  1  0  0  0  0
M  END
> <ConfClashScore>
0 

> <ConfOneFourInteractionScore>
-0.949001 

> <ConfScore>
0.476581 

> <ConfScorePBest>
0.0127295 

> <ConfTolerance>
0.574782 

$$$$
5FW.qm
 OpenBabel09182216093D

 36 37  0  0  0  0  0  0  0  0999 V2000
    7.7954   -1.2438    0.9757 C   0  0  0  1  0  0  0  0  0  0  0  0
    7.7187   -2.0426    3.3267 N   0  0  0  1  0  0  0  0  0  0  0  0
    7.0704   -2.0652    2.0240 C   0  0  0  1  0  0  0  0  0  0  0  0
    5.6357   -1.5548    2.1595 C   0  0  0  1  0  0  0  0  0  0  0  0
    4.7469   -2.3542    3.0922 C   0  0  0  1  0  0  0  0  0  0  0  0
    3.8447   -3.3295    2.7373 C   0  0  0  1  0  0  0  0  0  0  0  0
    3.2104   -3.8268    3.8572 N   0  0  0  1  0  0  0  0  0  0  0  0
    3.7157   -3.1913    4.9757 C   0  0  0  1  0  0  0  0  0  0  0  0
    3.4154   -3.3629    6.3304 C   0  0  0  1  0  0  0  0  0  0  0  0
    4.0846   -2.5617    7.2508 C   0  0  0  1  0  0  0  0  0  0  0  0
    5.0294   -1.6262    6.7987 C   0  0  0  1  0  0  0  0  0  0  0  0
    5.3466   -1.4383    5.4668 C   0  0  0  1  0  0  0  0  0  0  0  0
    4.6794   -2.2436    4.5244 C   0  0  0  1  0  0  0  0  0  0  0  0
    7.9990   -0.0515    1.1350 O   0  0  0  1  0  0  0  0  0  0  0  0
    5.6624   -0.8690    7.7152 F   0  0  0  1  0  0  0  0  0  0  0  0
    8.3675   -3.1505    3.8504 C   0  0  0  1  0  0  0  0  0  0  0  0
    8.3852   -4.1798    3.1957 O   0  0  0  1  0  0  0  0  0  0  0  0
    9.0222   -3.0437    5.1990 C   0  0  0  1  0  0  0  0  0  0  0  0
    8.1892   -1.9126   -0.1196 N   0  0  0  1  0  0  0  0  0  0  0  0
    8.7921   -1.3036   -1.2958 C   0  0  0  1  0  0  0  0  0  0  0  0
    7.6960   -1.2156    3.8520 H   0  0  0  1  0  0  0  0  0  0  0  0
    7.0269   -3.0771    1.6788 H   0  0  0  1  0  0  0  0  0  0  0  0
    5.1883   -1.5655    1.1876 H   0  0  0  1  0  0  0  0  0  0  0  0
    5.6760   -0.5493    2.5231 H   0  0  0  1  0  0  0  0  0  0  0  0
    3.6659   -3.6470    1.7632 H   0  0  0  1  0  0  0  0  0  0  0  0
    2.5153   -4.5176    3.8592 H   0  0  0  1  0  0  0  0  0  0  0  0
    2.7148   -4.0663    6.6402 H   0  0  0  1  0  0  0  0  0  0  0  0
    3.8861   -2.6551    8.2674 H   0  0  0  1  0  0  0  0  0  0  0  0
    6.0498   -0.7308    5.1726 H   0  0  0  1  0  0  0  0  0  0  0  0
    9.8858   -2.4159    5.1281 H   0  0  0  1  0  0  0  0  0  0  0  0
    9.3158   -4.0176    5.5308 H   0  0  0  1  0  0  0  0  0  0  0  0
    8.3311   -2.6214    5.8983 H   0  0  0  1  0  0  0  0  0  0  0  0
    8.0609   -2.8841   -0.1278 H   0  0  0  1  0  0  0  0  0  0  0  0
    8.5106   -0.2726   -1.3482 H   0  0  0  1  0  0  0  0  0  0  0  0
    8.4517   -1.8112   -2.1741 H   0  0  0  1  0  0  0  0  0  0  0  0
    9.8574   -1.3793   -1.2298 H   0  0  0  1  0  0  0  0  0  0  0  0
  1  3  1  0  0  0  0
  1 14  2  0  0  0  0
  1 19  1  0  0  0  0
  2  3  1  0  0  0  0
  2 16  1  0  0  0  0
  2 21  1  0  0  0  0
  3  4  1  0  0  0  0
  3 22  1  0  0  0  0
  4  5  1  0  0  0  0
  4 23  1  0  0  0  0
  4 24  1  0  0  0  0
  5  6  4  0  0  0  0
  5 13  4  0  0  0  0
  6  7  4  0  0  0  0
  6 25  1  0  0  0  0
  7  8  4  0  0  0  0
  7 26  1  0  0  0  0
  8  9  4  0  0  0  0
  8 13  4  0  0  0  0
  9 10  4  0  0  0  0
  9 27  1  0  0  0  0
 10 11  4  0  0  0  0
 10 28  1  0  0  0  0
 11 12  4  0  0  0  0
 11 15  1  0  0  0  0
 12 13  4  0  0  0  0
 12 29  1  0  0  0  0
 16 17  2  0  0  0  0
 16 18  1  0  0  0  0
 18 30  1  0  0  0  0
 18 31  1  0  0  0  0
 18 32  1  0  0  0  0
 19 20  1  0  0  0  0
 19 33  1  0  0  0  0
 20 34  1  0  0  0  0
 20 35  1  0  0  0  0
 20 36  1  0  0  0  0
M  END
> <ConfClashScore>
0 

> <ConfOneFourInteractionScore>
-0.981931 

> <ConfScore>
0.480071 

> <ConfScorePBest>
0.0126265 

> <ConfTolerance>
0.26954 

$$$$
5FW.qm
 OpenBabel09182216093D

 36 37  0  0  0  0  0  0  0  0999 V2000
    4.1871   -1.6591    0.1070 C   0  0  0  1  0  0  0  0  0  0  0  0
    6.5839   -1.5230   -0.1616 N   0  0  0  1  0  0  0  0  0  0  0  0
    5.5410   -2.0223    0.7222 C   0  0  0  1  0  0  0  0  0  0  0  0
    5.6198   -1.5571    2.1704 C   0  0  0  1  0  0  0  0  0  0  0  0
    4.7430   -2.3580    3.0955 C   0  0  0  1  0  0  0  0  0  0  0  0
    3.8458   -3.3232    2.7448 C   0  0  0  1  0  0  0  0  0  0  0  0
    3.2222   -3.8184    3.8613 N   0  0  0  1  0  0  0  0  0  0  0  0
    3.7241   -3.1911    4.9686 C   0  0  0  1  0  0  0  0  0  0  0  0
    3.4215   -3.3552    6.3232 C   0  0  0  1  0  0  0  0  0  0  0  0
    4.0916   -2.5579    7.2254 C   0  0  0  1  0  0  0  0  0  0  0  0
    5.0305   -1.6199    6.8076 C   0  0  0  1  0  0  0  0  0  0  0  0
    5.3340   -1.4612    5.4735 C   0  0  0  1  0  0  0  0  0  0  0  0
    4.6811   -2.2608    4.5291 C   0  0  0  1  0  0  0  0  0  0  0  0
    3.1880   -2.3475    0.3108 O   0  0  0  1  0  0  0  0  0  0  0  0
    5.6532   -0.8537    7.7236 F   0  0  0  1  0  0  0  0  0  0  0  0
    6.7624   -1.9085   -1.4261 C   0  0  0  1  0  0  0  0  0  0  0  0
    6.1038   -2.7931   -1.9713 O   0  0  0  1  0  0  0  0  0  0  0  0
    7.7974   -1.1030   -2.2082 C   0  0  0  1  0  0  0  0  0  0  0  0
    4.1708   -0.5552   -0.6566 N   0  0  0  1  0  0  0  0  0  0  0  0
    2.9423   -0.0215   -1.2256 C   0  0  0  1  0  0  0  0  0  0  0  0
    7.2015   -0.8532    0.1994 H   0  0  0  1  0  0  0  0  0  0  0  0
    5.6030   -3.0904    0.7338 H   0  0  0  1  0  0  0  0  0  0  0  0
    5.3162   -0.5321    2.2158 H   0  0  0  1  0  0  0  0  0  0  0  0
    6.6336   -1.6444    2.5014 H   0  0  0  1  0  0  0  0  0  0  0  0
    3.6612   -3.6384    1.7710 H   0  0  0  1  0  0  0  0  0  0  0  0
    2.5284   -4.5105    3.8653 H   0  0  0  1  0  0  0  0  0  0  0  0
    2.7172   -4.0526    6.6383 H   0  0  0  1  0  0  0  0  0  0  0  0
    3.8913   -2.6596    8.2408 H   0  0  0  1  0  0  0  0  0  0  0  0
    6.0382   -0.7575    5.1725 H   0  0  0  1  0  0  0  0  0  0  0  0
    7.5202   -0.0695   -2.2080 H   0  0  0  1  0  0  0  0  0  0  0  0
    7.8400   -1.4604   -3.2158 H   0  0  0  1  0  0  0  0  0  0  0  0
    8.7573   -1.2146   -1.7487 H   0  0  0  1  0  0  0  0  0  0  0  0
    5.0157   -0.0925   -0.8372 H   0  0  0  1  0  0  0  0  0  0  0  0
    2.2630    0.2287   -0.4376 H   0  0  0  1  0  0  0  0  0  0  0  0
    2.4952   -0.7568   -1.8615 H   0  0  0  1  0  0  0  0  0  0  0  0
    3.1653    0.8559   -1.7959 H   0  0  0  1  0  0  0  0  0  0  0  0
  1  3  1  0  0  0  0
  1 14  2  0  0  0  0
  1 19  1  0  0  0  0
  2  3  1  0  0  0  0
  2 16  1  0  0  0  0
  2 21  1  0  0  0  0
  3  4  1  0  0  0  0
  3 22  1  0  0  0  0
  4  5  1  0  0  0  0
  4 23  1  0  0  0  0
  4 24  1  0  0  0  0
  5  6  4  0  0  0  0
  5 13  4  0  0  0  0
  6  7  4  0  0  0  0
  6 25  1  0  0  0  0
  7  8  4  0  0  0  0
  7 26  1  0  0  0  0
  8  9  4  0  0  0  0
  8 13  4  0  0  0  0
  9 10  4  0  0  0  0
  9 27  1  0  0  0  0
 10 11  4  0  0  0  0
 10 28  1  0  0  0  0
 11 12  4  0  0  0  0
 11 15  1  0  0  0  0
 12 13  4  0  0  0  0
 12 29  1  0  0  0  0
 16 17  2  0  0  0  0
 16 18  1  0  0  0  0
 18 30  1  0  0  0  0
 18 31  1  0  0  0  0
 18 32  1  0  0  0  0
 19 20  1  0  0  0  0
 19 33  1  0  0  0  0
 20 34  1  0  0  0  0
 20 35  1  0  0  0  0
 20 36  1  0  0  0  0
M  END
> <ConfClashScore>
0 

> <ConfOneFourInteractionScore>
-0.934209 

> <ConfScore>
0.484485 

> <ConfScorePBest>
0.0125235 

> <ConfTolerance>
0.361804 

$$$$
5FW.qm
 OpenBabel09182216093D

 36 37  0  0  0  0  0  0  0  0999 V2000
    5.7326    0.3479    0.4743 C   0  0  0  1  0  0  0  0  0  0  0  0
    3.6768   -0.8872    0.8129 N   0  0  0  1  0  0  0  0  0  0  0  0
    4.8756   -0.4093    1.4828 C   0  0  0  1  0  0  0  0  0  0  0  0
    5.6198   -1.5571    2.1704 C   0  0  0  1  0  0  0  0  0  0  0  0
    4.7430   -2.3580    3.0955 C   0  0  0  1  0  0  0  0  0  0  0  0
    3.8458   -3.3232    2.7448 C   0  0  0  1  0  0  0  0  0  0  0  0
    3.2222   -3.8184    3.8613 N   0  0  0  1  0  0  0  0  0  0  0  0
    3.7241   -3.1911    4.9686 C   0  0  0  1  0  0  0  0  0  0  0  0
    3.4215   -3.3552    6.3232 C   0  0  0  1  0  0  0  0  0  0  0  0
    4.0916   -2.5579    7.2254 C   0  0  0  1  0  0  0  0  0  0  0  0
    5.0305   -1.6199    6.8076 C   0  0  0  1  0  0  0  0  0  0  0  0
    5.3340   -1.4612    5.4735 C   0  0  0  1  0  0  0  0  0  0  0  0
    4.6811   -2.2608    4.5291 C   0  0  0  1  0  0  0  0  0  0  0  0
    5.7030    0.0658   -0.7229 O   0  0  0  1  0  0  0  0  0  0  0  0
    5.6532   -0.8537    7.7236 F   0  0  0  1  0  0  0  0  0  0  0  0
    2.4535   -0.4780    1.1610 C   0  0  0  1  0  0  0  0  0  0  0  0
    2.2390    0.2306    2.1409 O   0  0  0  1  0  0  0  0  0  0  0  0
    1.3230   -0.9442    0.2644 C   0  0  0  1  0  0  0  0  0  0  0  0
    6.4376    1.3780    0.9507 N   0  0  0  1  0  0  0  0  0  0  0  0
    7.3423    2.1106    0.0774 C   0  0  0  1  0  0  0  0  0  0  0  0
    3.7693   -1.5318    0.0806 H   0  0  0  1  0  0  0  0  0  0  0  0
    4.5838    0.2848    2.2430 H   0  0  0  1  0  0  0  0  0  0  0  0
    6.4288   -1.1469    2.7380 H   0  0  0  1  0  0  0  0  0  0  0  0
    6.0074   -2.2111    1.4174 H   0  0  0  1  0  0  0  0  0  0  0  0
    3.6612   -3.6384    1.7710 H   0  0  0  1  0  0  0  0  0  0  0  0
    2.5284   -4.5105    3.8653 H   0  0  0  1  0  0  0  0  0  0  0  0
    2.7172   -4.0526    6.6383 H   0  0  0  1  0  0  0  0  0  0  0  0
    3.8913   -2.6596    8.2408 H   0  0  0  1  0  0  0  0  0  0  0  0
    6.0382   -0.7575    5.1725 H   0  0  0  1  0  0  0  0  0  0  0  0
    1.7060   -1.1576   -0.7116 H   0  0  0  1  0  0  0  0  0  0  0  0
    0.5819   -0.1754    0.1963 H   0  0  0  1  0  0  0  0  0  0  0  0
    0.8833   -1.8287    0.6759 H   0  0  0  1  0  0  0  0  0  0  0  0
    6.3453    1.6408    1.8903 H   0  0  0  1  0  0  0  0  0  0  0  0
    6.7806    2.5924   -0.6955 H   0  0  0  1  0  0  0  0  0  0  0  0
    8.0423    1.4307   -0.3617 H   0  0  0  1  0  0  0  0  0  0  0  0
    7.8692    2.8472    0.6471 H   0  0  0  1  0  0  0  0  0  0  0  0
  1  3  1  0  0  0  0
  1 14  2  0  0  0  0
  1 19  1  0  0  0  0
  2  3  1  0  0  0  0
  2 16  1  0  0  0  0
  2 21  1  0  0  0  0
  3  4  1  0  0  0  0
  3 22  1  0  0  0  0
  4  5  1  0  0  0  0
  4 23  1  0  0  0  0
  4 24  1  0  0  0  0
  5  6  4  0  0  0  0
  5 13  4  0  0  0  0
  6  7  4  0  0  0  0
  6 25  1  0  0  0  0
  7  8  4  0  0  0  0
  7 26  1  0  0  0  0
  8  9  4  0  0  0  0
  8 13  4  0  0  0  0
  9 10  4  0  0  0  0
  9 27  1  0  0  0  0
 10 11  4  0  0  0  0
 10 28  1  0  0  0  0
 11 12  4  0  0  0  0
 11 15  1  0  0  0  0
 12 13  4  0  0  0  0
 12 29  1  0  0  0  0
 16 17  2  0  0  0  0
 16 18  1  0  0  0  0
 18 30  1  0  0  0  0
 18 31  1  0  0  0  0
 18 32  1  0  0  0  0
 19 20  1  0  0  0  0
 19 33  1  0  0  0  0
 20 34  1  0  0  0  0
 20 35  1  0  0  0  0
 20 36  1  0  0  0  0
M  END
> <ConfClashScore>
0 

> <ConfOneFourInteractionScore>
-0.992391 

> <ConfScore>
0.487557 

> <ConfScorePBest>
0.0124205 

> <ConfTolerance>
0.339473 

$$$$
5FW.qm
 OpenBabel09182216093D

 36 37  0  0  0  0  0  0  0  0999 V2000
    7.9310   -1.3307    1.0455 C   0  0  0  1  0  0  0  0  0  0  0  0
    7.7100   -1.8737    3.4468 N   0  0  0  1  0  0  0  0  0  0  0  0
    7.0835   -2.0012    2.1139 C   0  0  0  1  0  0  0  0  0  0  0  0
    5.6300   -1.5599    2.1660 C   0  0  0  1  0  0  0  0  0  0  0  0
    4.7475   -2.3536    3.0919 C   0  0  0  1  0  0  0  0  0  0  0  0
    3.8453   -3.3289    2.7368 C   0  0  0  1  0  0  0  0  0  0  0  0
    3.2109   -3.8263    3.8566 N   0  0  0  1  0  0  0  0  0  0  0  0
    3.7161   -3.1909    4.9752 C   0  0  0  1  0  0  0  0  0  0  0  0
    3.4156   -3.3627    6.3299 C   0  0  0  1  0  0  0  0  0  0  0  0
    4.0847   -2.5615    7.2504 C   0  0  0  1  0  0  0  0  0  0  0  0
    5.0297   -1.6260    6.7984 C   0  0  0  1  0  0  0  0  0  0  0  0
    5.3470   -1.4380    5.4666 C   0  0  0  1  0  0  0  0  0  0  0  0
    4.6798   -2.2432    4.5241 C   0  0  0  1  0  0  0  0  0  0  0  0
    8.4814   -0.2524    1.2524 O   0  0  0  1  0  0  0  0  0  0  0  0
    5.6626   -0.8689    7.7151 F   0  0  0  1  0  0  0  0  0  0  0  0
    8.8811   -2.4448    3.7426 C   0  0  0  1  0  0  0  0  0  0  0  0
    9.5083   -3.1395    2.9440 O   0  0  0  1  0  0  0  0  0  0  0  0
    9.4055   -2.1859    5.1416 C   0  0  0  1  0  0  0  0  0  0  0  0
    8.0317   -1.9910   -0.1181 N   0  0  0  1  0  0  0  0  0  0  0  0
    8.8162   -1.5493   -1.2615 C   0  0  0  1  0  0  0  0  0  0  0  0
    7.2504   -1.3521    4.1375 H   0  0  0  1  0  0  0  0  0  0  0  0
    7.0721   -3.0446    1.8769 H   0  0  0  1  0  0  0  0  0  0  0  0
    5.2260   -1.6370    1.1782 H   0  0  0  1  0  0  0  0  0  0  0  0
    5.6064   -0.5382    2.4828 H   0  0  0  1  0  0  0  0  0  0  0  0
    3.6666   -3.6464    1.7627 H   0  0  0  1  0  0  0  0  0  0  0  0
    2.5158   -4.5171    3.8585 H   0  0  0  1  0  0  0  0  0  0  0  0
    2.7150   -4.0661    6.6395 H   0  0  0  1  0  0  0  0  0  0  0  0
    3.8862   -2.6550    8.2670 H   0  0  0  1  0  0  0  0  0  0  0  0
    6.0502   -0.7304    5.1725 H   0  0  0  1  0  0  0  0  0  0  0  0
    9.4476   -1.1314    5.3178 H   0  0  0  1  0  0  0  0  0  0  0  0
   10.3864   -2.6027    5.2373 H   0  0  0  1  0  0  0  0  0  0  0  0
    8.7527   -2.6411    5.8568 H   0  0  0  1  0  0  0  0  0  0  0  0
    7.5398   -2.8342   -0.2046 H   0  0  0  1  0  0  0  0  0  0  0  0
    9.0627   -0.5144   -1.1472 H   0  0  0  1  0  0  0  0  0  0  0  0
    8.2469   -1.6832   -2.1575 H   0  0  0  1  0  0  0  0  0  0  0  0
    9.7158   -2.1256   -1.3205 H   0  0  0  1  0  0  0  0  0  0  0  0
  1  3  1  0  0  0  0
  1 14  2  0  0  0  0
  1 19  1  0  0  0  0
  2  3  1  0  0  0  0
  2 16  1  0  0  0  0
  2 21  1  0  0  0  0
  3  4  1  0  0  0  0
  3 22  1  0  0  0  0
  4  5  1  0  0  0  0
  4 23  1  0  0  0  0
  4 24  1  0  0  0  0
  5  6  4  0  0  0  0
  5 13  4  0  0  0  0
  6  7  4  0  0  0  0
  6 25  1  0  0  0  0
  7  8  4  0  0  0  0
  7 26  1  0  0  0  0
  8  9  4  0  0  0  0
  8 13  4  0  0  0  0
  9 10  4  0  0  0  0
  9 27  1  0  0  0  0
 10 11  4  0  0  0  0
 10 28  1  0  0  0  0
 11 12  4  0  0  0  0
 11 15  1  0  0  0  0
 12 13  4  0  0  0  0
 12 29  1  0  0  0  0
 16 17  2  0  0  0  0
 16 18  1  0  0  0  0
 18 30  1  0  0  0  0
 18 31  1  0  0  0  0
 18 32  1  0  0  0  0
 19 20  1  0  0  0  0
 19 33  1  0  0  0  0
 20 34  1  0  0  0  0
 20 35  1  0  0  0  0
 20 36  1  0  0  0  0
M  END
> <ConfClashScore>
0 

> <ConfOneFourInteractionScore>
-0.981931 

> <ConfScore>
0.488041 

> <ConfScorePBest>
0.0123175 

> <ConfTolerance>
0.328738 

$$$$
5FW.qm
 OpenBabel09182216093D

 36 37  0  0  0  0  0  0  0  0999 V2000
    6.9617   -1.5069    0.0458 C   0  0  0  1  0  0  0  0  0  0  0  0
    7.1442   -3.3967    1.5841 N   0  0  0  1  0  0  0  0  0  0  0  0
    6.2333   -2.3986    1.0469 C   0  0  0  1  0  0  0  0  0  0  0  0
    5.6198   -1.5571    2.1704 C   0  0  0  1  0  0  0  0  0  0  0  0
    4.7430   -2.3580    3.0955 C   0  0  0  1  0  0  0  0  0  0  0  0
    3.8458   -3.3232    2.7448 C   0  0  0  1  0  0  0  0  0  0  0  0
    3.2222   -3.8184    3.8613 N   0  0  0  1  0  0  0  0  0  0  0  0
    3.7241   -3.1911    4.9686 C   0  0  0  1  0  0  0  0  0  0  0  0
    3.4215   -3.3552    6.3232 C   0  0  0  1  0  0  0  0  0  0  0  0
    4.0916   -2.5579    7.2254 C   0  0  0  1  0  0  0  0  0  0  0  0
    5.0305   -1.6199    6.8076 C   0  0  0  1  0  0  0  0  0  0  0  0
    5.3340   -1.4612    5.4735 C   0  0  0  1  0  0  0  0  0  0  0  0
    4.6811   -2.2608    4.5291 C   0  0  0  1  0  0  0  0  0  0  0  0
    6.3384   -0.8720   -0.8039 O   0  0  0  1  0  0  0  0  0  0  0  0
    5.6532   -0.8537    7.7236 F   0  0  0  1  0  0  0  0  0  0  0  0
    7.9109   -4.1236    0.7570 C   0  0  0  1  0  0  0  0  0  0  0  0
    7.8886   -3.9368   -0.4588 O   0  0  0  1  0  0  0  0  0  0  0  0
    8.8053   -5.1814    1.3627 C   0  0  0  1  0  0  0  0  0  0  0  0
    8.3002   -1.4366    0.1205 N   0  0  0  1  0  0  0  0  0  0  0  0
    9.0786   -0.5294   -0.7096 C   0  0  0  1  0  0  0  0  0  0  0  0
    7.1983   -3.5386    2.5522 H   0  0  0  1  0  0  0  0  0  0  0  0
    5.4370   -2.8945    0.5322 H   0  0  0  1  0  0  0  0  0  0  0  0
    5.0306   -0.7797    1.7307 H   0  0  0  1  0  0  0  0  0  0  0  0
    6.4129   -1.1236    2.7431 H   0  0  0  1  0  0  0  0  0  0  0  0
    3.6612   -3.6384    1.7710 H   0  0  0  1  0  0  0  0  0  0  0  0
    2.5284   -4.5105    3.8653 H   0  0  0  1  0  0  0  0  0  0  0  0
    2.7172   -4.0526    6.6383 H   0  0  0  1  0  0  0  0  0  0  0  0
    3.8913   -2.6596    8.2408 H   0  0  0  1  0  0  0  0  0  0  0  0
    6.0382   -0.7575    5.1725 H   0  0  0  1  0  0  0  0  0  0  0  0
    8.8449   -5.0508    2.4240 H   0  0  0  1  0  0  0  0  0  0  0  0
    9.7906   -5.0909    0.9555 H   0  0  0  1  0  0  0  0  0  0  0  0
    8.4134   -6.1512    1.1374 H   0  0  0  1  0  0  0  0  0  0  0  0
    8.7696   -2.0163    0.7562 H   0  0  0  1  0  0  0  0  0  0  0  0
    8.5174   -0.2757   -1.5846 H   0  0  0  1  0  0  0  0  0  0  0  0
    9.9924   -1.0056   -0.9979 H   0  0  0  1  0  0  0  0  0  0  0  0
    9.2982    0.3599   -0.1567 H   0  0  0  1  0  0  0  0  0  0  0  0
  1  3  1  0  0  0  0
  1 14  2  0  0  0  0
  1 19  1  0  0  0  0
  2  3  1  0  0  0  0
  2 16  1  0  0  0  0
  2 21  1  0  0  0  0
  3  4  1  0  0  0  0
  3 22  1  0  0  0  0
  4  5  1  0  0  0  0
  4 23  1  0  0  0  0
  4 24  1  0  0  0  0
  5  6  4  0  0  0  0
  5 13  4  0  0  0  0
  6  7  4  0  0  0  0
  6 25  1  0  0  0  0
  7  8  4  0  0  0  0
  7 26  1  0  0  0  0
  8  9  4  0  0  0  0
  8 13  4  0  0  0  0
  9 10  4  0  0  0  0
  9 27  1  0  0  0  0
 10 11  4  0  0  0  0
 10 28  1  0  0  0  0
 11 12  4  0  0  0  0
 11 15  1  0  0  0  0
 12 13  4  0  0  0  0
 12 29  1  0  0  0  0
 16 17  2  0  0  0  0
 16 18  1  0  0  0  0
 18 30  1  0  0  0  0
 18 31  1  0  0  0  0
 18 32  1  0  0  0  0
 19 20  1  0  0  0  0
 19 33  1  0  0  0  0
 20 34  1  0  0  0  0
 20 35  1  0  0  0  0
 20 36  1  0  0  0  0
M  END
> <ConfClashScore>
0 

> <ConfOneFourInteractionScore>
-0.956443 

> <ConfScore>
0.489109 

> <ConfScorePBest>
0.0122145 

> <ConfTolerance>
0.699343 

$$$$
5FW.qm
 OpenBabel09182216093D

 36 37  0  0  0  0  0  0  0  0999 V2000
    7.3448    0.2017    1.8846 C   0  0  0  1  0  0  0  0  0  0  0  0
    5.5076    0.4968    3.4738 N   0  0  0  1  0  0  0  0  0  0  0  0
    6.4188   -0.4710    2.8813 C   0  0  0  1  0  0  0  0  0  0  0  0
    5.6300   -1.5599    2.1660 C   0  0  0  1  0  0  0  0  0  0  0  0
    4.7475   -2.3536    3.0919 C   0  0  0  1  0  0  0  0  0  0  0  0
    3.8453   -3.3289    2.7368 C   0  0  0  1  0  0  0  0  0  0  0  0
    3.2109   -3.8263    3.8566 N   0  0  0  1  0  0  0  0  0  0  0  0
    3.7161   -3.1909    4.9752 C   0  0  0  1  0  0  0  0  0  0  0  0
    3.4156   -3.3627    6.3299 C   0  0  0  1  0  0  0  0  0  0  0  0
    4.0847   -2.5615    7.2504 C   0  0  0  1  0  0  0  0  0  0  0  0
    5.0297   -1.6260    6.7984 C   0  0  0  1  0  0  0  0  0  0  0  0
    5.3470   -1.4380    5.4666 C   0  0  0  1  0  0  0  0  0  0  0  0
    4.6798   -2.2432    4.5241 C   0  0  0  1  0  0  0  0  0  0  0  0
    8.4008   -0.3229    1.5411 O   0  0  0  1  0  0  0  0  0  0  0  0
    5.6626   -0.8689    7.7151 F   0  0  0  1  0  0  0  0  0  0  0  0
    5.9332    1.4883    4.2617 C   0  0  0  1  0  0  0  0  0  0  0  0
    7.1167    1.6881    4.4803 O   0  0  0  1  0  0  0  0  0  0  0  0
    4.8749    2.4470    4.8083 C   0  0  0  1  0  0  0  0  0  0  0  0
    6.9341    1.3841    1.4173 N   0  0  0  1  0  0  0  0  0  0  0  0
    7.7243    2.1657    0.4779 C   0  0  0  1  0  0  0  0  0  0  0  0
    4.5485    0.4186    3.2883 H   0  0  0  1  0  0  0  0  0  0  0  0
    7.0096   -0.9257    3.6488 H   0  0  0  1  0  0  0  0  0  0  0  0
    6.3211   -2.2291    1.6974 H   0  0  0  1  0  0  0  0  0  0  0  0
    5.0154   -1.1010    1.4199 H   0  0  0  1  0  0  0  0  0  0  0  0
    3.6666   -3.6464    1.7627 H   0  0  0  1  0  0  0  0  0  0  0  0
    2.5158   -4.5171    3.8585 H   0  0  0  1  0  0  0  0  0  0  0  0
    2.7150   -4.0661    6.6395 H   0  0  0  1  0  0  0  0  0  0  0  0
    3.8862   -2.6550    8.2670 H   0  0  0  1  0  0  0  0  0  0  0  0
    6.0502   -0.7304    5.1725 H   0  0  0  1  0  0  0  0  0  0  0  0
    4.3988    2.9546    3.9955 H   0  0  0  1  0  0  0  0  0  0  0  0
    5.3413    3.1634    5.4518 H   0  0  0  1  0  0  0  0  0  0  0  0
    4.1439    1.8938    5.3602 H   0  0  0  1  0  0  0  0  0  0  0  0
    6.0707    1.7373    1.7176 H   0  0  0  1  0  0  0  0  0  0  0  0
    8.3494    1.5118   -0.0937 H   0  0  0  1  0  0  0  0  0  0  0  0
    8.3339    2.8606    1.0167 H   0  0  0  1  0  0  0  0  0  0  0  0
    7.0707    2.6993   -0.1801 H   0  0  0  1  0  0  0  0  0  0  0  0
  1  3  1  0  0  0  0
  1 14  2  0  0  0  0
  1 19  1  0  0  0  0
  2  3  1  0  0  0  0
  2 16  1  0  0  0  0
  2 21  1  0  0  0  0
  3  4  1  0  0  0  0
  3 22  1  0  0  0  0
  4  5  1  0  0  0  0
  4 23  1  0  0  0  0
  4 24  1  0  0  0  0
  5  6  4  0  0  0  0
  5 13  4  0  0  0  0
  6  7  4  0  0  0  0
  6 25  1  0  0  0  0
  7  8  4  0  0  0  0
  7 26  1  0  0  0  0
  8  9  4  0  0  0  0
  8 13  4  0  0  0  0
  9 10  4  0  0  0  0
  9 27  1  0  0  0  0
 10 11  4  0  0  0  0
 10 28  1  0  0  0  0
 11 12  4  0  0  0  0
 11 15  1  0  0  0  0
 12 13  4  0  0  0  0
 12 29  1  0  0  0  0
 16 17  2  0  0  0  0
 16 18  1  0  0  0  0
 18 30  1  0  0  0  0
 18 31  1  0  0  0  0
 18 32  1  0  0  0  0
 19 20  1  0  0  0  0
 19 33  1  0  0  0  0
 20 34  1  0  0  0  0
 20 35  1  0  0  0  0
 20 36  1  0  0  0  0
M  END
> <ConfClashScore>
0 

> <ConfOneFourInteractionScore>
-0.949001 

> <ConfScore>
0.489558 

> <ConfScorePBest>
0.0121115 

> <ConfTolerance>
0.711005 

$$$$
5FW.qm
 OpenBabel09182216093D

 36 37  0  0  0  0  0  0  0  0999 V2000
    7.9069   -1.4192    1.1280 C   0  0  0  1  0  0  0  0  0  0  0  0
    7.5298   -2.7989    3.1078 N   0  0  0  1  0  0  0  0  0  0  0  0
    6.9256   -2.3120    1.8767 C   0  0  0  1  0  0  0  0  0  0  0  0
    5.6300   -1.5599    2.1660 C   0  0  0  1  0  0  0  0  0  0  0  0
    4.7475   -2.3536    3.0919 C   0  0  0  1  0  0  0  0  0  0  0  0
    3.8453   -3.3289    2.7368 C   0  0  0  1  0  0  0  0  0  0  0  0
    3.2109   -3.8263    3.8566 N   0  0  0  1  0  0  0  0  0  0  0  0
    3.7161   -3.1909    4.9752 C   0  0  0  1  0  0  0  0  0  0  0  0
    3.4156   -3.3627    6.3299 C   0  0  0  1  0  0  0  0  0  0  0  0
    4.0847   -2.5615    7.2504 C   0  0  0  1  0  0  0  0  0  0  0  0
    5.0297   -1.6260    6.7984 C   0  0  0  1  0  0  0  0  0  0  0  0
    5.3470   -1.4380    5.4666 C   0  0  0  1  0  0  0  0  0  0  0  0
    4.6798   -2.2432    4.5241 C   0  0  0  1  0  0  0  0  0  0  0  0
    8.7951   -0.8087    1.7212 O   0  0  0  1  0  0  0  0  0  0  0  0
    5.6626   -0.8689    7.7151 F   0  0  0  1  0  0  0  0  0  0  0  0
    7.6691   -4.1020    3.3678 C   0  0  0  1  0  0  0  0  0  0  0  0
    7.1799   -4.9746    2.6696 O   0  0  0  1  0  0  0  0  0  0  0  0
    8.4833   -4.4445    4.6003 C   0  0  0  1  0  0  0  0  0  0  0  0
    7.7350   -1.3496   -0.1951 N   0  0  0  1  0  0  0  0  0  0  0  0
    8.5797   -0.6629   -1.1610 C   0  0  0  1  0  0  0  0  0  0  0  0
    7.8455   -2.1483    3.7693 H   0  0  0  1  0  0  0  0  0  0  0  0
    6.6916   -3.1472    1.2501 H   0  0  0  1  0  0  0  0  0  0  0  0
    5.1103   -1.3896    1.2463 H   0  0  0  1  0  0  0  0  0  0  0  0
    5.8638   -0.6212    2.6232 H   0  0  0  1  0  0  0  0  0  0  0  0
    3.6666   -3.6464    1.7627 H   0  0  0  1  0  0  0  0  0  0  0  0
    2.5158   -4.5171    3.8585 H   0  0  0  1  0  0  0  0  0  0  0  0
    2.7150   -4.0661    6.6395 H   0  0  0  1  0  0  0  0  0  0  0  0
    3.8862   -2.6550    8.2670 H   0  0  0  1  0  0  0  0  0  0  0  0
    6.0502   -0.7304    5.1725 H   0  0  0  1  0  0  0  0  0  0  0  0
    9.4243   -3.9368    4.5592 H   0  0  0  1  0  0  0  0  0  0  0  0
    8.6494   -5.5009    4.6355 H   0  0  0  1  0  0  0  0  0  0  0  0
    7.9506   -4.1373    5.4760 H   0  0  0  1  0  0  0  0  0  0  0  0
    6.9511   -1.8136   -0.5563 H   0  0  0  1  0  0  0  0  0  0  0  0
    8.4412   -1.0971   -2.1290 H   0  0  0  1  0  0  0  0  0  0  0  0
    9.6049   -0.7597   -0.8702 H   0  0  0  1  0  0  0  0  0  0  0  0
    8.3141    0.3731   -1.1937 H   0  0  0  1  0  0  0  0  0  0  0  0
  1  3  1  0  0  0  0
  1 14  2  0  0  0  0
  1 19  1  0  0  0  0
  2  3  1  0  0  0  0
  2 16  1  0  0  0  0
  2 21  1  0  0  0  0
  3  4  1  0  0  0  0
  3 22  1  0  0  0  0
  4  5  1  0  0  0  0
  4 23  1  0  0  0  0
  4 24  1  0  0  0  0
  5  6  4  0  0  0  0
  5 13  4  0  0  0  0
  6  7  4  0  0  0  0
  6 25  1  0  0  0  0
  7  8  4  0  0  0  0
  7 26  1  0  0  0  0
  8  9  4  0  0  0  0
  8 13  4  0  0  0  0
  9 10  4  0  0  0  0
  9 27  1  0  0  0  0
 10 11  4  0  0  0  0
 10 28  1  0  0  0  0
 11 12  4  0  0  0  0
 11 15  1  0  0  0  0
 12 13  4  0  0  0  0
 12 29  1  0  0  0  0
 16 17  2  0  0  0  0
 16 18  1  0  0  0  0
 18 30  1  0  0  0  0
 18 31  1  0  0  0  0
 18 32  1  0  0  0  0
 19 20  1  0  0  0  0
 19 33  1  0  0  0  0
 20 34  1  0  0  0  0
 20 35  1  0  0  0  0
 20 36  1  0  0  0  0
M  END
> <ConfClashScore>
0 

> <ConfOneFourInteractionScore>
-0.992391 

> <ConfScore>
0.49306 

> <ConfScorePBest>
0.0120085 

> <ConfTolerance>
0.362865 

$$$$
5FW.qm
 OpenBabel09182216093D

 36 37  0  0  0  0  0  0  0  0999 V2000
    7.7589   -1.6884    0.8598 C   0  0  0  1  0  0  0  0  0  0  0  0
    7.6615   -2.3530    3.2440 N   0  0  0  1  0  0  0  0  0  0  0  0
    6.9360   -2.3004    1.9835 C   0  0  0  1  0  0  0  0  0  0  0  0
    5.6198   -1.5571    2.1704 C   0  0  0  1  0  0  0  0  0  0  0  0
    4.7430   -2.3580    3.0955 C   0  0  0  1  0  0  0  0  0  0  0  0
    3.8458   -3.3232    2.7448 C   0  0  0  1  0  0  0  0  0  0  0  0
    3.2222   -3.8184    3.8613 N   0  0  0  1  0  0  0  0  0  0  0  0
    3.7241   -3.1911    4.9686 C   0  0  0  1  0  0  0  0  0  0  0  0
    3.4215   -3.3552    6.3232 C   0  0  0  1  0  0  0  0  0  0  0  0
    4.0916   -2.5579    7.2254 C   0  0  0  1  0  0  0  0  0  0  0  0
    5.0305   -1.6199    6.8076 C   0  0  0  1  0  0  0  0  0  0  0  0
    5.3340   -1.4612    5.4735 C   0  0  0  1  0  0  0  0  0  0  0  0
    4.6811   -2.2608    4.5291 C   0  0  0  1  0  0  0  0  0  0  0  0
    8.6786   -0.9090    1.1038 O   0  0  0  1  0  0  0  0  0  0  0  0
    5.6532   -0.8537    7.7236 F   0  0  0  1  0  0  0  0  0  0  0  0
    7.8793   -3.5248    3.9125 C   0  0  0  1  0  0  0  0  0  0  0  0
    7.4685   -4.5946    3.4939 O   0  0  0  1  0  0  0  0  0  0  0  0
    8.6668   -3.3521    5.1967 C   0  0  0  1  0  0  0  0  0  0  0  0
    7.4531   -2.0223   -0.3949 N   0  0  0  1  0  0  0  0  0  0  0  0
    8.0892   -1.4714   -1.5822 C   0  0  0  1  0  0  0  0  0  0  0  0
    8.0057   -1.5191    3.6268 H   0  0  0  1  0  0  0  0  0  0  0  0
    6.6974   -3.3026    1.6944 H   0  0  0  1  0  0  0  0  0  0  0  0
    5.1341   -1.4411    1.2241 H   0  0  0  1  0  0  0  0  0  0  0  0
    5.8074   -0.5935    2.5960 H   0  0  0  1  0  0  0  0  0  0  0  0
    3.6612   -3.6384    1.7710 H   0  0  0  1  0  0  0  0  0  0  0  0
    2.5284   -4.5105    3.8653 H   0  0  0  1  0  0  0  0  0  0  0  0
    2.7172   -4.0526    6.6383 H   0  0  0  1  0  0  0  0  0  0  0  0
    3.8913   -2.6596    8.2408 H   0  0  0  1  0  0  0  0  0  0  0  0
    6.0382   -0.7575    5.1725 H   0  0  0  1  0  0  0  0  0  0  0  0
    9.1951   -4.2563    5.4161 H   0  0  0  1  0  0  0  0  0  0  0  0
    7.9953   -3.1281    5.9991 H   0  0  0  1  0  0  0  0  0  0  0  0
    9.3655   -2.5500    5.0813 H   0  0  0  1  0  0  0  0  0  0  0  0
    6.7469   -2.6888   -0.5271 H   0  0  0  1  0  0  0  0  0  0  0  0
    9.0557   -1.0907   -1.3256 H   0  0  0  1  0  0  0  0  0  0  0  0
    7.4866   -0.6788   -1.9742 H   0  0  0  1  0  0  0  0  0  0  0  0
    8.1929   -2.2395   -2.3199 H   0  0  0  1  0  0  0  0  0  0  0  0
  1  3  1  0  0  0  0
  1 14  2  0  0  0  0
  1 19  1  0  0  0  0
  2  3  1  0  0  0  0
  2 16  1  0  0  0  0
  2 21  1  0  0  0  0
  3  4  1  0  0  0  0
  3 22  1  0  0  0  0
  4  5  1  0  0  0  0
  4 23  1  0  0  0  0
  4 24  1  0  0  0  0
  5  6  4  0  0  0  0
  5 13  4  0  0  0  0
  6  7  4  0  0  0  0
  6 25  1  0  0  0  0
  7  8  4  0  0  0  0
  7 26  1  0  0  0  0
  8  9  4  0  0  0  0
  8 13  4  0  0  0  0
  9 10  4  0  0  0  0
  9 27  1  0  0  0  0
 10 11  4  0  0  0  0
 10 28  1  0  0  0  0
 11 12  4  0  0  0  0
 11 15  1  0  0  0  0
 12 13  4  0  0  0  0
 12 29  1  0  0  0  0
 16 17  2  0  0  0  0
 16 18  1  0  0  0  0
 18 30  1  0  0  0  0
 18 31  1  0  0  0  0
 18 32  1  0  0  0  0
 19 20  1  0  0  0  0
 19 33  1  0  0  0  0
 20 34  1  0  0  0  0
 20 35  1  0  0  0  0
 20 36  1  0  0  0  0
M  END
> <ConfClashScore>
0 

> <ConfOneFourInteractionScore>
-0.986627 

> <ConfScore>
0.493621 

> <ConfScorePBest>
0.0119055 

> <ConfTolerance>
0.377023 

$$$$
5FW.qm
 OpenBabel09182216093D

 36 37  0  0  0  0  0  0  0  0999 V2000
    5.8142    0.5106    0.7542 C   0  0  0  1  0  0  0  0  0  0  0  0
    3.9374   -1.0830    0.4677 N   0  0  0  1  0  0  0  0  0  0  0  0
    4.8592   -0.4748    1.4155 C   0  0  0  1  0  0  0  0  0  0  0  0
    5.6198   -1.5571    2.1704 C   0  0  0  1  0  0  0  0  0  0  0  0
    4.7430   -2.3580    3.0955 C   0  0  0  1  0  0  0  0  0  0  0  0
    3.8458   -3.3232    2.7448 C   0  0  0  1  0  0  0  0  0  0  0  0
    3.2222   -3.8184    3.8613 N   0  0  0  1  0  0  0  0  0  0  0  0
    3.7241   -3.1911    4.9686 C   0  0  0  1  0  0  0  0  0  0  0  0
    3.4215   -3.3552    6.3232 C   0  0  0  1  0  0  0  0  0  0  0  0
    4.0916   -2.5579    7.2254 C   0  0  0  1  0  0  0  0  0  0  0  0
    5.0305   -1.6199    6.8076 C   0  0  0  1  0  0  0  0  0  0  0  0
    5.3340   -1.4612    5.4735 C   0  0  0  1  0  0  0  0  0  0  0  0
    4.6811   -2.2608    4.5291 C   0  0  0  1  0  0  0  0  0  0  0  0
    6.3399    0.2444   -0.3258 O   0  0  0  1  0  0  0  0  0  0  0  0
    5.6532   -0.8537    7.7236 F   0  0  0  1  0  0  0  0  0  0  0  0
    2.6113   -0.9907    0.6023 C   0  0  0  1  0  0  0  0  0  0  0  0
    2.0724   -0.3251    1.4855 O   0  0  0  1  0  0  0  0  0  0  0  0
    1.7909   -1.7651   -0.4109 C   0  0  0  1  0  0  0  0  0  0  0  0
    5.9446    1.6767    1.3931 N   0  0  0  1  0  0  0  0  0  0  0  0
    6.7413    2.7920    0.9040 C   0  0  0  1  0  0  0  0  0  0  0  0
    4.3020   -1.5774   -0.2959 H   0  0  0  1  0  0  0  0  0  0  0  0
    4.2854    0.0716    2.1346 H   0  0  0  1  0  0  0  0  0  0  0  0
    6.3899   -1.0915    2.7492 H   0  0  0  1  0  0  0  0  0  0  0  0
    6.0612   -2.2228    1.4583 H   0  0  0  1  0  0  0  0  0  0  0  0
    3.6612   -3.6384    1.7710 H   0  0  0  1  0  0  0  0  0  0  0  0
    2.5284   -4.5105    3.8653 H   0  0  0  1  0  0  0  0  0  0  0  0
    2.7172   -4.0526    6.6383 H   0  0  0  1  0  0  0  0  0  0  0  0
    3.8913   -2.6596    8.2408 H   0  0  0  1  0  0  0  0  0  0  0  0
    6.0382   -0.7575    5.1725 H   0  0  0  1  0  0  0  0  0  0  0  0
    0.7803   -1.4140   -0.3954 H   0  0  0  1  0  0  0  0  0  0  0  0
    1.8104   -2.8061   -0.1644 H   0  0  0  1  0  0  0  0  0  0  0  0
    2.2032   -1.6215   -1.3878 H   0  0  0  1  0  0  0  0  0  0  0  0
    5.4737    1.7881    2.2453 H   0  0  0  1  0  0  0  0  0  0  0  0
    6.7585    2.7768   -0.1657 H   0  0  0  1  0  0  0  0  0  0  0  0
    7.7403    2.7073    1.2777 H   0  0  0  1  0  0  0  0  0  0  0  0
    6.3109    3.7121    1.2405 H   0  0  0  1  0  0  0  0  0  0  0  0
  1  3  1  0  0  0  0
  1 14  2  0  0  0  0
  1 19  1  0  0  0  0
  2  3  1  0  0  0  0
  2 16  1  0  0  0  0
  2 21  1  0  0  0  0
  3  4  1  0  0  0  0
  3 22  1  0  0  0  0
  4  5  1  0  0  0  0
  4 23  1  0  0  0  0
  4 24  1  0  0  0  0
  5  6  4  0  0  0  0
  5 13  4  0  0  0  0
  6  7  4  0  0  0  0
  6 25  1  0  0  0  0
  7  8  4  0  0  0  0
  7 26  1  0  0  0  0
  8  9  4  0  0  0  0
  8 13  4  0  0  0  0
  9 10  4  0  0  0  0
  9 27  1  0  0  0  0
 10 11  4  0  0  0  0
 10 28  1  0  0  0  0
 11 12  4  0  0  0  0
 11 15  1  0  0  0  0
 12 13  4  0  0  0  0
 12 29  1  0  0  0  0
 16 17  2  0  0  0  0
 16 18  1  0  0  0  0
 18 30  1  0  0  0  0
 18 31  1  0  0  0  0
 18 32  1  0  0  0  0
 19 20  1  0  0  0  0
 19 33  1  0  0  0  0
 20 34  1  0  0  0  0
 20 35  1  0  0  0  0
 20 36  1  0  0  0  0
M  END
> <ConfClashScore>
0 

> <ConfOneFourInteractionScore>
-0.978947 

> <ConfScore>
0.497669 

> <ConfScorePBest>
0.0118025 

> <ConfTolerance>
0.391651 

$$$$
5FW.qm
 OpenBabel09182216093D

 36 37  0  0  0  0  0  0  0  0999 V2000
    6.1894    0.7582    1.3270 C   0  0  0  1  0  0  0  0  0  0  0  0
    3.8434   -0.0824    1.3058 N   0  0  0  1  0  0  0  0  0  0  0  0
    5.1331   -0.1178    1.9790 C   0  0  0  1  0  0  0  0  0  0  0  0
    5.6198   -1.5571    2.1704 C   0  0  0  1  0  0  0  0  0  0  0  0
    4.7430   -2.3580    3.0955 C   0  0  0  1  0  0  0  0  0  0  0  0
    3.8458   -3.3232    2.7448 C   0  0  0  1  0  0  0  0  0  0  0  0
    3.2222   -3.8184    3.8613 N   0  0  0  1  0  0  0  0  0  0  0  0
    3.7241   -3.1911    4.9686 C   0  0  0  1  0  0  0  0  0  0  0  0
    3.4215   -3.3552    6.3232 C   0  0  0  1  0  0  0  0  0  0  0  0
    4.0916   -2.5579    7.2254 C   0  0  0  1  0  0  0  0  0  0  0  0
    5.0305   -1.6199    6.8076 C   0  0  0  1  0  0  0  0  0  0  0  0
    5.3340   -1.4612    5.4735 C   0  0  0  1  0  0  0  0  0  0  0  0
    4.6811   -2.2608    4.5291 C   0  0  0  1  0  0  0  0  0  0  0  0
    7.3532    0.7615    1.6948 O   0  0  0  1  0  0  0  0  0  0  0  0
    5.6532   -0.8537    7.7236 F   0  0  0  1  0  0  0  0  0  0  0  0
    2.8694    0.8155    1.6410 C   0  0  0  1  0  0  0  0  0  0  0  0
    3.0467    1.6757    2.4837 O   0  0  0  1  0  0  0  0  0  0  0  0
    1.5826    0.6266    0.8700 C   0  0  0  1  0  0  0  0  0  0  0  0
    5.8377    1.5542    0.3160 N   0  0  0  1  0  0  0  0  0  0  0  0
    6.7605    2.3584   -0.4711 C   0  0  0  1  0  0  0  0  0  0  0  0
    3.6673   -0.7249    0.5870 H   0  0  0  1  0  0  0  0  0  0  0  0
    4.9827    0.2773    2.9619 H   0  0  0  1  0  0  0  0  0  0  0  0
    6.6093   -1.5308    2.5768 H   0  0  0  1  0  0  0  0  0  0  0  0
    5.6385   -2.0401    1.2158 H   0  0  0  1  0  0  0  0  0  0  0  0
    3.6612   -3.6384    1.7710 H   0  0  0  1  0  0  0  0  0  0  0  0
    2.5284   -4.5105    3.8653 H   0  0  0  1  0  0  0  0  0  0  0  0
    2.7172   -4.0526    6.6383 H   0  0  0  1  0  0  0  0  0  0  0  0
    3.8913   -2.6596    8.2408 H   0  0  0  1  0  0  0  0  0  0  0  0
    6.0382   -0.7575    5.1725 H   0  0  0  1  0  0  0  0  0  0  0  0
    1.7537    0.8318   -0.1662 H   0  0  0  1  0  0  0  0  0  0  0  0
    0.8390    1.2968    1.2480 H   0  0  0  1  0  0  0  0  0  0  0  0
    1.2445   -0.3823    0.9824 H   0  0  0  1  0  0  0  0  0  0  0  0
    4.8862    1.6008    0.0859 H   0  0  0  1  0  0  0  0  0  0  0  0
    6.3342    2.5522   -1.4332 H   0  0  0  1  0  0  0  0  0  0  0  0
    7.6827    1.8290   -0.5899 H   0  0  0  1  0  0  0  0  0  0  0  0
    6.9430    3.2854    0.0312 H   0  0  0  1  0  0  0  0  0  0  0  0
  1  3  1  0  0  0  0
  1 14  2  0  0  0  0
  1 19  1  0  0  0  0
  2  3  1  0  0  0  0
  2 16  1  0  0  0  0
  2 21  1  0  0  0  0
  3  4  1  0  0  0  0
  3 22  1  0  0  0  0
  4  5  1  0  0  0  0
  4 23  1  0  0  0  0
  4 24  1  0  0  0  0
  5  6  4  0  0  0  0
  5 13  4  0  0  0  0
  6  7  4  0  0  0  0
  6 25  1  0  0  0  0
  7  8  4  0  0  0  0
  7 26  1  0  0  0  0
  8  9  4  0  0  0  0
  8 13  4  0  0  0  0
  9 10  4  0  0  0  0
  9 27  1  0  0  0  0
 10 11  4  0  0  0  0
 10 28  1  0  0  0  0
 11 12  4  0  0  0  0
 11 15  1  0  0  0  0
 12 13  4  0  0  0  0
 12 29  1  0  0  0  0
 16 17  2  0  0  0  0
 16 18  1  0  0  0  0
 18 30  1  0  0  0  0
 18 31  1  0  0  0  0
 18 32  1  0  0  0  0
 19 20  1  0  0  0  0
 19 33  1  0  0  0  0
 20 34  1  0  0  0  0
 20 35  1  0  0  0  0
 20 36  1  0  0  0  0
M  END
> <ConfClashScore>
0 

> <ConfOneFourInteractionScore>
-0.956443 

> <ConfScore>
0.498856 

> <ConfScorePBest>
0.0116995 

> <ConfTolerance>
0.387499 

$$$$
5FW.qm
 OpenBabel09182216093D

 36 37  0  0  0  0  0  0  0  0999 V2000
    5.9959    0.4552    0.7078 C   0  0  0  1  0  0  0  0  0  0  0  0
    3.7299   -0.4856    1.0810 N   0  0  0  1  0  0  0  0  0  0  0  0
    5.0408   -0.2505    1.6677 C   0  0  0  1  0  0  0  0  0  0  0  0
    5.6300   -1.5599    2.1660 C   0  0  0  1  0  0  0  0  0  0  0  0
    4.7475   -2.3536    3.0919 C   0  0  0  1  0  0  0  0  0  0  0  0
    3.8453   -3.3289    2.7368 C   0  0  0  1  0  0  0  0  0  0  0  0
    3.2109   -3.8263    3.8566 N   0  0  0  1  0  0  0  0  0  0  0  0
    3.7161   -3.1909    4.9752 C   0  0  0  1  0  0  0  0  0  0  0  0
    3.4156   -3.3627    6.3299 C   0  0  0  1  0  0  0  0  0  0  0  0
    4.0847   -2.5615    7.2504 C   0  0  0  1  0  0  0  0  0  0  0  0
    5.0297   -1.6260    6.7984 C   0  0  0  1  0  0  0  0  0  0  0  0
    5.3470   -1.4380    5.4666 C   0  0  0  1  0  0  0  0  0  0  0  0
    4.6798   -2.2432    4.5241 C   0  0  0  1  0  0  0  0  0  0  0  0
    6.9403    1.1133    1.1137 O   0  0  0  1  0  0  0  0  0  0  0  0
    5.6626   -0.8689    7.7151 F   0  0  0  1  0  0  0  0  0  0  0  0
    2.6494    0.3014    1.2638 C   0  0  0  1  0  0  0  0  0  0  0  0
    2.6788    1.2492    2.0477 O   0  0  0  1  0  0  0  0  0  0  0  0
    1.4056   -0.0132    0.4810 C   0  0  0  1  0  0  0  0  0  0  0  0
    5.6899    0.2758   -0.5869 N   0  0  0  1  0  0  0  0  0  0  0  0
    6.4239    0.9336   -1.6576 C   0  0  0  1  0  0  0  0  0  0  0  0
    3.6240   -1.2751    0.5100 H   0  0  0  1  0  0  0  0  0  0  0  0
    4.9159    0.3873    2.5177 H   0  0  0  1  0  0  0  0  0  0  0  0
    6.5379   -1.3365    2.6862 H   0  0  0  1  0  0  0  0  0  0  0  0
    5.8473   -2.1695    1.3139 H   0  0  0  1  0  0  0  0  0  0  0  0
    3.6666   -3.6464    1.7627 H   0  0  0  1  0  0  0  0  0  0  0  0
    2.5158   -4.5171    3.8585 H   0  0  0  1  0  0  0  0  0  0  0  0
    2.7150   -4.0661    6.6395 H   0  0  0  1  0  0  0  0  0  0  0  0
    3.8862   -2.6550    8.2670 H   0  0  0  1  0  0  0  0  0  0  0  0
    6.0502   -0.7304    5.1725 H   0  0  0  1  0  0  0  0  0  0  0  0
    1.4523    0.4693   -0.4728 H   0  0  0  1  0  0  0  0  0  0  0  0
    0.5487    0.3385    1.0168 H   0  0  0  1  0  0  0  0  0  0  0  0
    1.3301   -1.0714    0.3418 H   0  0  0  1  0  0  0  0  0  0  0  0
    4.9463   -0.3188   -0.8192 H   0  0  0  1  0  0  0  0  0  0  0  0
    7.1786    1.5653   -1.2376 H   0  0  0  1  0  0  0  0  0  0  0  0
    5.7494    1.5241   -2.2417 H   0  0  0  1  0  0  0  0  0  0  0  0
    6.8835    0.1951   -2.2807 H   0  0  0  1  0  0  0  0  0  0  0  0
  1  3  1  0  0  0  0
  1 14  2  0  0  0  0
  1 19  1  0  0  0  0
  2  3  1  0  0  0  0
  2 16  1  0  0  0  0
  2 21  1  0  0  0  0
  3  4  1  0  0  0  0
  3 22  1  0  0  0  0
  4  5  1  0  0  0  0
  4 23  1  0  0  0  0
  4 24  1  0  0  0  0
  5  6  4  0  0  0  0
  5 13  4  0  0  0  0
  6  7  4  0  0  0  0
  6 25  1  0  0  0  0
  7  8  4  0  0  0  0
  7 26  1  0  0  0  0
  8  9  4  0  0  0  0
  8 13  4  0  0  0  0
  9 10  4  0  0  0  0
  9 27  1  0  0  0  0
 10 11  4  0  0  0  0
 10 28  1  0  0  0  0
 11 12  4  0  0  0  0
 11 15  1  0  0  0  0
 12 13  4  0  0  0  0
 12 29  1  0  0  0  0
 16 17  2  0  0  0  0
 16 18  1  0  0  0  0
 18 30  1  0  0  0  0
 18 31  1  0  0  0  0
 18 32  1  0  0  0  0
 19 20  1  0  0  0  0
 19 33  1  0  0  0  0
 20 34  1  0  0  0  0
 20 35  1  0  0  0  0
 20 36  1  0  0  0  0
M  END
> <ConfClashScore>
0 

> <ConfOneFourInteractionScore>
-0.94165 

> <ConfScore>
0.501478 

> <ConfScorePBest>
0.0115965 

> <ConfTolerance>
0.557626 

$$$$
5FW.qm
 OpenBabel09182216093D

 36 37  0  0  0  0  0  0  0  0999 V2000
    7.4947   -1.5624    0.4814 C   0  0  0  1  0  0  0  0  0  0  0  0
    7.8137   -2.4692    2.7653 N   0  0  0  1  0  0  0  0  0  0  0  0
    6.8742   -2.2845    1.6693 C   0  0  0  1  0  0  0  0  0  0  0  0
    5.6300   -1.5599    2.1660 C   0  0  0  1  0  0  0  0  0  0  0  0
    4.7475   -2.3536    3.0919 C   0  0  0  1  0  0  0  0  0  0  0  0
    3.8453   -3.3289    2.7368 C   0  0  0  1  0  0  0  0  0  0  0  0
    3.2109   -3.8263    3.8566 N   0  0  0  1  0  0  0  0  0  0  0  0
    3.7161   -3.1909    4.9752 C   0  0  0  1  0  0  0  0  0  0  0  0
    3.4156   -3.3627    6.3299 C   0  0  0  1  0  0  0  0  0  0  0  0
    4.0847   -2.5615    7.2504 C   0  0  0  1  0  0  0  0  0  0  0  0
    5.0297   -1.6260    6.7984 C   0  0  0  1  0  0  0  0  0  0  0  0
    5.3470   -1.4380    5.4666 C   0  0  0  1  0  0  0  0  0  0  0  0
    4.6798   -2.2432    4.5241 C   0  0  0  1  0  0  0  0  0  0  0  0
    6.7738   -1.3153   -0.4818 O   0  0  0  1  0  0  0  0  0  0  0  0
    5.6626   -0.8689    7.7151 F   0  0  0  1  0  0  0  0  0  0  0  0
    8.5145   -3.6425    2.9446 C   0  0  0  1  0  0  0  0  0  0  0  0
    8.2323   -4.6278    2.2891 O   0  0  0  1  0  0  0  0  0  0  0  0
    9.6076   -3.6034    3.9723 C   0  0  0  1  0  0  0  0  0  0  0  0
    8.7837   -1.2364    0.5473 N   0  0  0  1  0  0  0  0  0  0  0  0
    9.5017   -0.6719   -0.5857 C   0  0  0  1  0  0  0  0  0  0  0  0
    7.9530   -1.7337    3.3978 H   0  0  0  1  0  0  0  0  0  0  0  0
    6.5653   -3.2507    1.3288 H   0  0  0  1  0  0  0  0  0  0  0  0
    5.0474   -1.2816    1.3128 H   0  0  0  1  0  0  0  0  0  0  0  0
    5.9460   -0.6794    2.6854 H   0  0  0  1  0  0  0  0  0  0  0  0
    3.6666   -3.6464    1.7627 H   0  0  0  1  0  0  0  0  0  0  0  0
    2.5158   -4.5171    3.8585 H   0  0  0  1  0  0  0  0  0  0  0  0
    2.7150   -4.0661    6.6395 H   0  0  0  1  0  0  0  0  0  0  0  0
    3.8862   -2.6550    8.2670 H   0  0  0  1  0  0  0  0  0  0  0  0
    6.0502   -0.7304    5.1725 H   0  0  0  1  0  0  0  0  0  0  0  0
    9.8431   -2.5858    4.2047 H   0  0  0  1  0  0  0  0  0  0  0  0
   10.4779   -4.0912    3.5857 H   0  0  0  1  0  0  0  0  0  0  0  0
    9.2812   -4.1052    4.8591 H   0  0  0  1  0  0  0  0  0  0  0  0
    9.2659   -1.3816    1.3880 H   0  0  0  1  0  0  0  0  0  0  0  0
   10.5137   -1.0194   -0.5763 H   0  0  0  1  0  0  0  0  0  0  0  0
    9.4909    0.3959   -0.5183 H   0  0  0  1  0  0  0  0  0  0  0  0
    9.0285   -0.9772   -1.4955 H   0  0  0  1  0  0  0  0  0  0  0  0
  1  3  1  0  0  0  0
  1 14  2  0  0  0  0
  1 19  1  0  0  0  0
  2  3  1  0  0  0  0
  2 16  1  0  0  0  0
  2 21  1  0  0  0  0
  3  4  1  0  0  0  0
  3 22  1  0  0  0  0
  4  5  1  0  0  0  0
  4 23  1  0  0  0  0
  4 24  1  0  0  0  0
  5  6  4  0  0  0  0
  5 13  4  0  0  0  0
  6  7  4  0  0  0  0
  6 25  1  0  0  0  0
  7  8  4  0  0  0  0
  7 26  1  0  0  0  0
  8  9  4  0  0  0  0
  8 13  4  0  0  0  0
  9 10  4  0  0  0  0
  9 27  1  0  0  0  0
 10 11  4  0  0  0  0
 10 28  1  0  0  0  0
 11 12  4  0  0  0  0
 11 15  1  0  0  0  0
 12 13  4  0  0  0  0
 12 29  1  0  0  0  0
 16 17  2  0  0  0  0
 16 18  1  0  0  0  0
 18 30  1  0  0  0  0
 18 31  1  0  0  0  0
 18 32  1  0  0  0  0
 19 20  1  0  0  0  0
 19 33  1  0  0  0  0
 20 34  1  0  0  0  0
 20 35  1  0  0  0  0
 20 36  1  0  0  0  0
M  END
> <ConfClashScore>
0 

> <ConfOneFourInteractionScore>
-0.956443 

> <ConfScore>
0.504692 

> <ConfScorePBest>
0.0114935 

> <ConfTolerance>
0.475365 

$$$$
5FW.qm
 OpenBabel09182216093D

 36 37  0  0  0  0  0  0  0  0999 V2000
    3.7944   -0.2140    1.0790 C   0  0  0  1  0  0  0  0  0  0  0  0
    5.0204    0.6050    3.0448 N   0  0  0  1  0  0  0  0  0  0  0  0
    5.1255   -0.1690    1.8183 C   0  0  0  1  0  0  0  0  0  0  0  0
    5.6300   -1.5599    2.1660 C   0  0  0  1  0  0  0  0  0  0  0  0
    4.7475   -2.3536    3.0919 C   0  0  0  1  0  0  0  0  0  0  0  0
    3.8453   -3.3289    2.7368 C   0  0  0  1  0  0  0  0  0  0  0  0
    3.2109   -3.8263    3.8566 N   0  0  0  1  0  0  0  0  0  0  0  0
    3.7161   -3.1909    4.9752 C   0  0  0  1  0  0  0  0  0  0  0  0
    3.4156   -3.3627    6.3299 C   0  0  0  1  0  0  0  0  0  0  0  0
    4.0847   -2.5615    7.2504 C   0  0  0  1  0  0  0  0  0  0  0  0
    5.0297   -1.6260    6.7984 C   0  0  0  1  0  0  0  0  0  0  0  0
    5.3470   -1.4380    5.4666 C   0  0  0  1  0  0  0  0  0  0  0  0
    4.6798   -2.2432    4.5241 C   0  0  0  1  0  0  0  0  0  0  0  0
    3.7469   -0.3502   -0.1428 O   0  0  0  1  0  0  0  0  0  0  0  0
    5.6626   -0.8689    7.7151 F   0  0  0  1  0  0  0  0  0  0  0  0
    4.5546    1.8571    3.0609 C   0  0  0  1  0  0  0  0  0  0  0  0
    4.3059    2.4864    2.0457 O   0  0  0  1  0  0  0  0  0  0  0  0
    4.3478    2.4655    4.4343 C   0  0  0  1  0  0  0  0  0  0  0  0
    2.7031   -0.0968    1.8409 N   0  0  0  1  0  0  0  0  0  0  0  0
    1.3814   -0.1163    1.2321 C   0  0  0  1  0  0  0  0  0  0  0  0
    5.3009    0.1939    3.8890 H   0  0  0  1  0  0  0  0  0  0  0  0
    5.8466    0.2924    1.1764 H   0  0  0  1  0  0  0  0  0  0  0  0
    6.5882   -1.4569    2.6310 H   0  0  0  1  0  0  0  0  0  0  0  0
    5.7327   -2.1112    1.2547 H   0  0  0  1  0  0  0  0  0  0  0  0
    3.6666   -3.6464    1.7627 H   0  0  0  1  0  0  0  0  0  0  0  0
    2.5158   -4.5171    3.8585 H   0  0  0  1  0  0  0  0  0  0  0  0
    2.7150   -4.0661    6.6395 H   0  0  0  1  0  0  0  0  0  0  0  0
    3.8862   -2.6550    8.2670 H   0  0  0  1  0  0  0  0  0  0  0  0
    6.0502   -0.7304    5.1725 H   0  0  0  1  0  0  0  0  0  0  0  0
    3.6521    1.8699    4.9877 H   0  0  0  1  0  0  0  0  0  0  0  0
    3.9630    3.4584    4.3301 H   0  0  0  1  0  0  0  0  0  0  0  0
    5.2824    2.4973    4.9544 H   0  0  0  1  0  0  0  0  0  0  0  0
    2.7928    0.0026    2.8117 H   0  0  0  1  0  0  0  0  0  0  0  0
    1.3381   -0.8929    0.4972 H   0  0  0  1  0  0  0  0  0  0  0  0
    1.1900    0.8273    0.7652 H   0  0  0  1  0  0  0  0  0  0  0  0
    0.6443   -0.2977    1.9862 H   0  0  0  1  0  0  0  0  0  0  0  0
  1  3  1  0  0  0  0
  1 14  2  0  0  0  0
  1 19  1  0  0  0  0
  2  3  1  0  0  0  0
  2 16  1  0  0  0  0
  2 21  1  0  0  0  0
  3  4  1  0  0  0  0
  3 22  1  0  0  0  0
  4  5  1  0  0  0  0
  4 23  1  0  0  0  0
  4 24  1  0  0  0  0
  5  6  4  0  0  0  0
  5 13  4  0  0  0  0
  6  7  4  0  0  0  0
  6 25  1  0  0  0  0
  7  8  4  0  0  0  0
  7 26  1  0  0  0  0
  8  9  4  0  0  0  0
  8 13  4  0  0  0  0
  9 10  4  0  0  0  0
  9 27  1  0  0  0  0
 10 11  4  0  0  0  0
 10 28  1  0  0  0  0
 11 12  4  0  0  0  0
 11 15  1  0  0  0  0
 12 13  4  0  0  0  0
 12 29  1  0  0  0  0
 16 17  2  0  0  0  0
 16 18  1  0  0  0  0
 18 30  1  0  0  0  0
 18 31  1  0  0  0  0
 18 32  1  0  0  0  0
 19 20  1  0  0  0  0
 19 33  1  0  0  0  0
 20 34  1  0  0  0  0
 20 35  1  0  0  0  0
 20 36  1  0  0  0  0
M  END
> <ConfClashScore>
0 

> <ConfOneFourInteractionScore>
-0.950605 

> <ConfScore>
0.506551 

> <ConfScorePBest>
0.0113905 

> <ConfTolerance>
0.324299 

$$$$
5FW.qm
 OpenBabel09182216093D

 36 37  0  0  0  0  0  0  0  0999 V2000
    5.6649   -3.2971    0.3591 C   0  0  0  1  0  0  0  0  0  0  0  0
    7.4328   -1.6261    0.4812 N   0  0  0  1  0  0  0  0  0  0  0  0
    6.5182   -2.4359    1.2699 C   0  0  0  1  0  0  0  0  0  0  0  0
    5.6357   -1.5548    2.1595 C   0  0  0  1  0  0  0  0  0  0  0  0
    4.7469   -2.3542    3.0922 C   0  0  0  1  0  0  0  0  0  0  0  0
    3.8447   -3.3295    2.7373 C   0  0  0  1  0  0  0  0  0  0  0  0
    3.2104   -3.8268    3.8572 N   0  0  0  1  0  0  0  0  0  0  0  0
    3.7157   -3.1913    4.9757 C   0  0  0  1  0  0  0  0  0  0  0  0
    3.4154   -3.3629    6.3304 C   0  0  0  1  0  0  0  0  0  0  0  0
    4.0846   -2.5617    7.2508 C   0  0  0  1  0  0  0  0  0  0  0  0
    5.0294   -1.6262    6.7987 C   0  0  0  1  0  0  0  0  0  0  0  0
    5.3466   -1.4383    5.4668 C   0  0  0  1  0  0  0  0  0  0  0  0
    4.6794   -2.2436    4.5244 C   0  0  0  1  0  0  0  0  0  0  0  0
    5.2889   -4.4050    0.7050 O   0  0  0  1  0  0  0  0  0  0  0  0
    5.6624   -0.8690    7.7152 F   0  0  0  1  0  0  0  0  0  0  0  0
    8.1286   -2.1790   -0.5164 C   0  0  0  1  0  0  0  0  0  0  0  0
    8.0097   -3.3594   -0.8423 O   0  0  0  1  0  0  0  0  0  0  0  0
    9.0909   -1.2563   -1.2388 C   0  0  0  1  0  0  0  0  0  0  0  0
    5.3617   -2.7642   -0.8255 N   0  0  0  1  0  0  0  0  0  0  0  0
    4.6709   -3.5597   -1.8293 C   0  0  0  1  0  0  0  0  0  0  0  0
    7.5390   -0.6727    0.6817 H   0  0  0  1  0  0  0  0  0  0  0  0
    7.0860   -3.0830    1.9054 H   0  0  0  1  0  0  0  0  0  0  0  0
    5.0145   -0.9509    1.5316 H   0  0  0  1  0  0  0  0  0  0  0  0
    6.2681   -0.9243    2.7489 H   0  0  0  1  0  0  0  0  0  0  0  0
    3.6659   -3.6470    1.7632 H   0  0  0  1  0  0  0  0  0  0  0  0
    2.5153   -4.5176    3.8592 H   0  0  0  1  0  0  0  0  0  0  0  0
    2.7148   -4.0663    6.6402 H   0  0  0  1  0  0  0  0  0  0  0  0
    3.8861   -2.6551    8.2674 H   0  0  0  1  0  0  0  0  0  0  0  0
    6.0498   -0.7308    5.1726 H   0  0  0  1  0  0  0  0  0  0  0  0
    8.8504   -0.2392   -1.0097 H   0  0  0  1  0  0  0  0  0  0  0  0
    9.0101   -1.4127   -2.2942 H   0  0  0  1  0  0  0  0  0  0  0  0
   10.0912   -1.4660   -0.9222 H   0  0  0  1  0  0  0  0  0  0  0  0
    5.6047   -1.8350   -1.0202 H   0  0  0  1  0  0  0  0  0  0  0  0
    3.6983   -3.8229   -1.4693 H   0  0  0  1  0  0  0  0  0  0  0  0
    5.2310   -4.4499   -2.0260 H   0  0  0  1  0  0  0  0  0  0  0  0
    4.5754   -2.9913   -2.7308 H   0  0  0  1  0  0  0  0  0  0  0  0
  1  3  1  0  0  0  0
  1 14  2  0  0  0  0
  1 19  1  0  0  0  0
  2  3  1  0  0  0  0
  2 16  1  0  0  0  0
  2 21  1  0  0  0  0
  3  4  1  0  0  0  0
  3 22  1  0  0  0  0
  4  5  1  0  0  0  0
  4 23  1  0  0  0  0
  4 24  1  0  0  0  0
  5  6  4  0  0  0  0
  5 13  4  0  0  0  0
  6  7  4  0  0  0  0
  6 25  1  0  0  0  0
  7  8  4  0  0  0  0
  7 26  1  0  0  0  0
  8  9  4  0  0  0  0
  8 13  4  0  0  0  0
  9 10  4  0  0  0  0
  9 27  1  0  0  0  0
 10 11  4  0  0  0  0
 10 28  1  0  0  0  0
 11 12  4  0  0  0  0
 11 15  1  0  0  0  0
 12 13  4  0  0  0  0
 12 29  1  0  0  0  0
 16 17  2  0  0  0  0
 16 18  1  0  0  0  0
 18 30  1  0  0  0  0
 18 31  1  0  0  0  0
 18 32  1  0  0  0  0
 19 20  1  0  0  0  0
 19 33  1  0  0  0  0
 20 34  1  0  0  0  0
 20 35  1  0  0  0  0
 20 36  1  0  0  0  0
M  END
> <ConfClashScore>
0 

> <ConfOneFourInteractionScore>
-0.960318 

> <ConfScore>
0.509606 

> <ConfScorePBest>
0.0112875 

> <ConfTolerance>
0.867538 

$$$$
5FW.qm
 OpenBabel09182216093D

 36 37  0  0  0  0  0  0  0  0999 V2000
    7.6962   -1.4184    0.8217 C   0  0  0  1  0  0  0  0  0  0  0  0
    7.6643   -2.6738    2.9212 N   0  0  0  1  0  0  0  0  0  0  0  0
    6.8864   -2.3058    1.7467 C   0  0  0  1  0  0  0  0  0  0  0  0
    5.6198   -1.5571    2.1704 C   0  0  0  1  0  0  0  0  0  0  0  0
    4.7430   -2.3580    3.0955 C   0  0  0  1  0  0  0  0  0  0  0  0
    3.8458   -3.3232    2.7448 C   0  0  0  1  0  0  0  0  0  0  0  0
    3.2222   -3.8184    3.8613 N   0  0  0  1  0  0  0  0  0  0  0  0
    3.7241   -3.1911    4.9686 C   0  0  0  1  0  0  0  0  0  0  0  0
    3.4215   -3.3552    6.3232 C   0  0  0  1  0  0  0  0  0  0  0  0
    4.0916   -2.5579    7.2254 C   0  0  0  1  0  0  0  0  0  0  0  0
    5.0305   -1.6199    6.8076 C   0  0  0  1  0  0  0  0  0  0  0  0
    5.3340   -1.4612    5.4735 C   0  0  0  1  0  0  0  0  0  0  0  0
    4.6811   -2.2608    4.5291 C   0  0  0  1  0  0  0  0  0  0  0  0
    7.9684   -0.2580    1.1267 O   0  0  0  1  0  0  0  0  0  0  0  0
    5.6532   -0.8537    7.7236 F   0  0  0  1  0  0  0  0  0  0  0  0
    8.1504   -3.9056    3.0981 C   0  0  0  1  0  0  0  0  0  0  0  0
    7.9123   -4.8350    2.3313 O   0  0  0  1  0  0  0  0  0  0  0  0
    9.0283   -4.0983    4.3193 C   0  0  0  1  0  0  0  0  0  0  0  0
    8.0869   -1.9816   -0.3326 N   0  0  0  1  0  0  0  0  0  0  0  0
    8.7480   -1.2223   -1.3834 C   0  0  0  1  0  0  0  0  0  0  0  0
    7.8374   -1.9942    3.6058 H   0  0  0  1  0  0  0  0  0  0  0  0
    6.5996   -3.1887    1.2145 H   0  0  0  1  0  0  0  0  0  0  0  0
    5.0576   -1.3152    1.2927 H   0  0  0  1  0  0  0  0  0  0  0  0
    5.9080   -0.6557    2.6697 H   0  0  0  1  0  0  0  0  0  0  0  0
    3.6612   -3.6384    1.7710 H   0  0  0  1  0  0  0  0  0  0  0  0
    2.5284   -4.5105    3.8653 H   0  0  0  1  0  0  0  0  0  0  0  0
    2.7172   -4.0526    6.6383 H   0  0  0  1  0  0  0  0  0  0  0  0
    3.8913   -2.6596    8.2408 H   0  0  0  1  0  0  0  0  0  0  0  0
    6.0382   -0.7575    5.1725 H   0  0  0  1  0  0  0  0  0  0  0  0
    8.4541   -3.9179    5.2040 H   0  0  0  1  0  0  0  0  0  0  0  0
    9.8484   -3.4122    4.2805 H   0  0  0  1  0  0  0  0  0  0  0  0
    9.4018   -5.1009    4.3351 H   0  0  0  1  0  0  0  0  0  0  0  0
    7.9210   -2.9372   -0.4724 H   0  0  0  1  0  0  0  0  0  0  0  0
    8.8215   -1.8230   -2.2658 H   0  0  0  1  0  0  0  0  0  0  0  0
    9.7289   -0.9441   -1.0589 H   0  0  0  1  0  0  0  0  0  0  0  0
    8.1796   -0.3415   -1.5982 H   0  0  0  1  0  0  0  0  0  0  0  0
  1  3  1  0  0  0  0
  1 14  2  0  0  0  0
  1 19  1  0  0  0  0
  2  3  1  0  0  0  0
  2 16  1  0  0  0  0
  2 21  1  0  0  0  0
  3  4  1  0  0  0  0
  3 22  1  0  0  0  0
  4  5  1  0  0  0  0
  4 23  1  0  0  0  0
  4 24  1  0  0  0  0
  5  6  4  0  0  0  0
  5 13  4  0  0  0  0
  6  7  4  0  0  0  0
  6 25  1  0  0  0  0
  7  8  4  0  0  0  0
  7 26  1  0  0  0  0
  8  9  4  0  0  0  0
  8 13  4  0  0  0  0
  9 10  4  0  0  0  0
  9 27  1  0  0  0  0
 10 11  4  0  0  0  0
 10 28  1  0  0  0  0
 11 12  4  0  0  0  0
 11 15  1  0  0  0  0
 12 13  4  0  0  0  0
 12 29  1  0  0  0  0
 16 17  2  0  0  0  0
 16 18  1  0  0  0  0
 18 30  1  0  0  0  0
 18 31  1  0  0  0  0
 18 32  1  0  0  0  0
 19 20  1  0  0  0  0
 19 33  1  0  0  0  0
 20 34  1  0  0  0  0
 20 35  1  0  0  0  0
 20 36  1  0  0  0  0
M  END
> <ConfClashScore>
0 

> <ConfOneFourInteractionScore>
-0.979134 

> <ConfScore>
0.51139 

> <ConfScorePBest>
0.0111845 

> <ConfTolerance>
0.425862 

$$$$
5FW.qm
 OpenBabel09182216093D

 36 37  0  0  0  0  0  0  0  0999 V2000
    5.7986    0.3487    0.5479 C   0  0  0  1  0  0  0  0  0  0  0  0
    3.6106   -0.6478    1.1376 N   0  0  0  1  0  0  0  0  0  0  0  0
    4.9484   -0.3148    1.6138 C   0  0  0  1  0  0  0  0  0  0  0  0
    5.6300   -1.5599    2.1660 C   0  0  0  1  0  0  0  0  0  0  0  0
    4.7475   -2.3536    3.0919 C   0  0  0  1  0  0  0  0  0  0  0  0
    3.8453   -3.3289    2.7368 C   0  0  0  1  0  0  0  0  0  0  0  0
    3.2109   -3.8263    3.8566 N   0  0  0  1  0  0  0  0  0  0  0  0
    3.7161   -3.1909    4.9752 C   0  0  0  1  0  0  0  0  0  0  0  0
    3.4156   -3.3627    6.3299 C   0  0  0  1  0  0  0  0  0  0  0  0
    4.0847   -2.5615    7.2504 C   0  0  0  1  0  0  0  0  0  0  0  0
    5.0297   -1.6260    6.7984 C   0  0  0  1  0  0  0  0  0  0  0  0
    5.3470   -1.4380    5.4666 C   0  0  0  1  0  0  0  0  0  0  0  0
    4.6798   -2.2432    4.5241 C   0  0  0  1  0  0  0  0  0  0  0  0
    5.7340   -0.0006   -0.6278 O   0  0  0  1  0  0  0  0  0  0  0  0
    5.6626   -0.8689    7.7151 F   0  0  0  1  0  0  0  0  0  0  0  0
    2.7012    0.2883    0.8520 C   0  0  0  1  0  0  0  0  0  0  0  0
    2.9193    1.4931    0.9727 O   0  0  0  1  0  0  0  0  0  0  0  0
    1.3645   -0.2219    0.3632 C   0  0  0  1  0  0  0  0  0  0  0  0
    6.6116    1.3274    0.9760 N   0  0  0  1  0  0  0  0  0  0  0  0
    7.5880    1.9146    0.0706 C   0  0  0  1  0  0  0  0  0  0  0  0
    3.3705   -1.5910    1.0232 H   0  0  0  1  0  0  0  0  0  0  0  0
    4.8502    0.3792    2.4222 H   0  0  0  1  0  0  0  0  0  0  0  0
    6.5047   -1.2592    2.7038 H   0  0  0  1  0  0  0  0  0  0  0  0
    5.9128   -2.1857    1.3454 H   0  0  0  1  0  0  0  0  0  0  0  0
    3.6666   -3.6464    1.7627 H   0  0  0  1  0  0  0  0  0  0  0  0
    2.5158   -4.5171    3.8585 H   0  0  0  1  0  0  0  0  0  0  0  0
    2.7150   -4.0661    6.6395 H   0  0  0  1  0  0  0  0  0  0  0  0
    3.8862   -2.6550    8.2670 H   0  0  0  1  0  0  0  0  0  0  0  0
    6.0502   -0.7304    5.1725 H   0  0  0  1  0  0  0  0  0  0  0  0
    1.3782   -1.2915    0.3374 H   0  0  0  1  0  0  0  0  0  0  0  0
    1.1766    0.1559   -0.6200 H   0  0  0  1  0  0  0  0  0  0  0  0
    0.5926    0.1087    1.0265 H   0  0  0  1  0  0  0  0  0  0  0  0
    6.5475    1.6471    1.9002 H   0  0  0  1  0  0  0  0  0  0  0  0
    7.2622    1.7833   -0.9401 H   0  0  0  1  0  0  0  0  0  0  0  0
    8.5340    1.4330    0.2055 H   0  0  0  1  0  0  0  0  0  0  0  0
    7.6859    2.9592    0.2807 H   0  0  0  1  0  0  0  0  0  0  0  0
  1  3  1  0  0  0  0
  1 14  2  0  0  0  0
  1 19  1  0  0  0  0
  2  3  1  0  0  0  0
  2 16  1  0  0  0  0
  2 21  1  0  0  0  0
  3  4  1  0  0  0  0
  3 22  1  0  0  0  0
  4  5  1  0  0  0  0
  4 23  1  0  0  0  0
  4 24  1  0  0  0  0
  5  6  4  0  0  0  0
  5 13  4  0  0  0  0
  6  7  4  0  0  0  0
  6 25  1  0  0  0  0
  7  8  4  0  0  0  0
  7 26  1  0  0  0  0
  8  9  4  0  0  0  0
  8 13  4  0  0  0  0
  9 10  4  0  0  0  0
  9 27  1  0  0  0  0
 10 11  4  0  0  0  0
 10 28  1  0  0  0  0
 11 12  4  0  0  0  0
 11 15  1  0  0  0  0
 12 13  4  0  0  0  0
 12 29  1  0  0  0  0
 16 17  2  0  0  0  0
 16 18  1  0  0  0  0
 18 30  1  0  0  0  0
 18 31  1  0  0  0  0
 18 32  1  0  0  0  0
 19 20  1  0  0  0  0
 19 33  1  0  0  0  0
 20 34  1  0  0  0  0
 20 35  1  0  0  0  0
 20 36  1  0  0  0  0
M  END
> <ConfClashScore>
0 

> <ConfOneFourInteractionScore>
-0.985807 

> <ConfScore>
0.511987 

> <ConfScorePBest>
0.0110815 

> <ConfTolerance>
0.375386 

$$$$
5FW.qm
 OpenBabel09182216093D

 36 37  0  0  0  0  0  0  0  0999 V2000
    7.7487   -2.7914    2.7101 C   0  0  0  1  0  0  0  0  0  0  0  0
    6.4354   -3.3853    0.7168 N   0  0  0  1  0  0  0  0  0  0  0  0
    6.8202   -2.2991    1.6056 C   0  0  0  1  0  0  0  0  0  0  0  0
    5.6198   -1.5571    2.1704 C   0  0  0  1  0  0  0  0  0  0  0  0
    4.7430   -2.3580    3.0955 C   0  0  0  1  0  0  0  0  0  0  0  0
    3.8458   -3.3232    2.7448 C   0  0  0  1  0  0  0  0  0  0  0  0
    3.2222   -3.8184    3.8613 N   0  0  0  1  0  0  0  0  0  0  0  0
    3.7241   -3.1911    4.9686 C   0  0  0  1  0  0  0  0  0  0  0  0
    3.4215   -3.3552    6.3232 C   0  0  0  1  0  0  0  0  0  0  0  0
    4.0916   -2.5579    7.2254 C   0  0  0  1  0  0  0  0  0  0  0  0
    5.0305   -1.6199    6.8076 C   0  0  0  1  0  0  0  0  0  0  0  0
    5.3340   -1.4612    5.4735 C   0  0  0  1  0  0  0  0  0  0  0  0
    4.6811   -2.2608    4.5291 C   0  0  0  1  0  0  0  0  0  0  0  0
    8.7118   -2.1169    3.0721 O   0  0  0  1  0  0  0  0  0  0  0  0
    5.6532   -0.8537    7.7236 F   0  0  0  1  0  0  0  0  0  0  0  0
    7.3250   -4.2402    0.2098 C   0  0  0  1  0  0  0  0  0  0  0  0
    8.5253   -4.2370    0.4284 O   0  0  0  1  0  0  0  0  0  0  0  0
    6.7736   -5.3163   -0.7293 C   0  0  0  1  0  0  0  0  0  0  0  0
    7.4850   -3.9748    3.2713 N   0  0  0  1  0  0  0  0  0  0  0  0
    8.3256   -4.5458    4.3131 C   0  0  0  1  0  0  0  0  0  0  0  0
    5.4899   -3.4924    0.4826 H   0  0  0  1  0  0  0  0  0  0  0  0
    7.3759   -1.5901    1.0283 H   0  0  0  1  0  0  0  0  0  0  0  0
    5.0188   -1.2279    1.3486 H   0  0  0  1  0  0  0  0  0  0  0  0
    5.9814   -0.7077    2.7113 H   0  0  0  1  0  0  0  0  0  0  0  0
    3.6612   -3.6384    1.7710 H   0  0  0  1  0  0  0  0  0  0  0  0
    2.5284   -4.5105    3.8653 H   0  0  0  1  0  0  0  0  0  0  0  0
    2.7172   -4.0526    6.6383 H   0  0  0  1  0  0  0  0  0  0  0  0
    3.8913   -2.6596    8.2408 H   0  0  0  1  0  0  0  0  0  0  0  0
    6.0382   -0.7575    5.1725 H   0  0  0  1  0  0  0  0  0  0  0  0
    6.2179   -4.8522   -1.5172 H   0  0  0  1  0  0  0  0  0  0  0  0
    6.1324   -5.9739   -0.1803 H   0  0  0  1  0  0  0  0  0  0  0  0
    7.5851   -5.8750   -1.1467 H   0  0  0  1  0  0  0  0  0  0  0  0
    6.6981   -4.4758    2.9710 H   0  0  0  1  0  0  0  0  0  0  0  0
    8.5618   -3.7918    5.0346 H   0  0  0  1  0  0  0  0  0  0  0  0
    9.2293   -4.9181    3.8777 H   0  0  0  1  0  0  0  0  0  0  0  0
    7.8037   -5.3472    4.7929 H   0  0  0  1  0  0  0  0  0  0  0  0
  1  3  1  0  0  0  0
  1 14  2  0  0  0  0
  1 19  1  0  0  0  0
  2  3  1  0  0  0  0
  2 16  1  0  0  0  0
  2 21  1  0  0  0  0
  3  4  1  0  0  0  0
  3 22  1  0  0  0  0
  4  5  1  0  0  0  0
  4 23  1  0  0  0  0
  4 24  1  0  0  0  0
  5  6  4  0  0  0  0
  5 13  4  0  0  0  0
  6  7  4  0  0  0  0
  6 25  1  0  0  0  0
  7  8  4  0  0  0  0
  7 26  1  0  0  0  0
  8  9  4  0  0  0  0
  8 13  4  0  0  0  0
  9 10  4  0  0  0  0
  9 27  1  0  0  0  0
 10 11  4  0  0  0  0
 10 28  1  0  0  0  0
 11 12  4  0  0  0  0
 11 15  1  0  0  0  0
 12 13  4  0  0  0  0
 12 29  1  0  0  0  0
 16 17  2  0  0  0  0
 16 18  1  0  0  0  0
 18 30  1  0  0  0  0
 18 31  1  0  0  0  0
 18 32  1  0  0  0  0
 19 20  1  0  0  0  0
 19 33  1  0  0  0  0
 20 34  1  0  0  0  0
 20 35  1  0  0  0  0
 20 36  1  0  0  0  0
M  END
> <ConfClashScore>
0 

> <ConfOneFourInteractionScore>
-0.957074 

> <ConfScore>
0.513553 

> <ConfScorePBest>
0.0109785 

> <ConfTolerance>
0.338803 

$$$$
5FW.qm
 OpenBabel09182216093D

 36 37  0  0  0  0  0  0  0  0999 V2000
    3.7061   -0.2893    1.0148 C   0  0  0  1  0  0  0  0  0  0  0  0
    5.8961   -0.5903   -0.0851 N   0  0  0  1  0  0  0  0  0  0  0  0
    4.9275   -1.1755    0.8662 C   0  0  0  1  0  0  0  0  0  0  0  0
    5.6225   -1.5547    2.1673 C   0  0  0  1  0  0  0  0  0  0  0  0
    4.7427   -2.3582    3.0956 C   0  0  0  1  0  0  0  0  0  0  0  0
    3.8455   -3.3235    2.7450 C   0  0  0  1  0  0  0  0  0  0  0  0
    3.2219   -3.8186    3.8616 N   0  0  0  1  0  0  0  0  0  0  0  0
    3.7239   -3.1912    4.9689 C   0  0  0  1  0  0  0  0  0  0  0  0
    3.4213   -3.3553    6.3235 C   0  0  0  1  0  0  0  0  0  0  0  0
    4.0916   -2.5580    7.2256 C   0  0  0  1  0  0  0  0  0  0  0  0
    5.0304   -1.6200    6.8077 C   0  0  0  1  0  0  0  0  0  0  0  0
    5.3338   -1.4614    5.4735 C   0  0  0  1  0  0  0  0  0  0  0  0
    4.6809   -2.2610    4.5293 C   0  0  0  1  0  0  0  0  0  0  0  0
    2.6172   -0.7538    1.3495 O   0  0  0  1  0  0  0  0  0  0  0  0
    5.6532   -0.8537    7.7237 F   0  0  0  1  0  0  0  0  0  0  0  0
    5.5243   -0.0993   -1.2708 C   0  0  0  1  0  0  0  0  0  0  0  0
    4.3581   -0.1057   -1.6626 O   0  0  0  1  0  0  0  0  0  0  0  0
    6.6346    0.4753   -2.1211 C   0  0  0  1  0  0  0  0  0  0  0  0
    3.8971    1.0146    0.7590 N   0  0  0  1  0  0  0  0  0  0  0  0
    2.8945    2.0227    1.0696 C   0  0  0  1  0  0  0  0  0  0  0  0
    6.8438   -0.5615    0.1626 H   0  0  0  1  0  0  0  0  0  0  0  0
    4.5838   -2.0912    0.4323 H   0  0  0  1  0  0  0  0  0  0  0  0
    5.9178   -0.6573    2.6697 H   0  0  0  1  0  0  0  0  0  0  0  0
    6.4904   -2.1351    1.9332 H   0  0  0  1  0  0  0  0  0  0  0  0
    3.6608   -3.6387    1.7713 H   0  0  0  1  0  0  0  0  0  0  0  0
    2.5281   -4.5107    3.8657 H   0  0  0  1  0  0  0  0  0  0  0  0
    2.7171   -4.0527    6.6386 H   0  0  0  1  0  0  0  0  0  0  0  0
    3.8913   -2.6596    8.2411 H   0  0  0  1  0  0  0  0  0  0  0  0
    6.0380   -0.7577    5.1726 H   0  0  0  1  0  0  0  0  0  0  0  0
    7.0516    1.3313   -1.6331 H   0  0  0  1  0  0  0  0  0  0  0  0
    6.2411    0.7643   -3.0733 H   0  0  0  1  0  0  0  0  0  0  0  0
    7.3967   -0.2631   -2.2587 H   0  0  0  1  0  0  0  0  0  0  0  0
    4.7410    1.2975    0.3489 H   0  0  0  1  0  0  0  0  0  0  0  0
    2.3518    1.7293    1.9438 H   0  0  0  1  0  0  0  0  0  0  0  0
    2.2184    2.1186    0.2459 H   0  0  0  1  0  0  0  0  0  0  0  0
    3.3762    2.9615    1.2474 H   0  0  0  1  0  0  0  0  0  0  0  0
  1  3  1  0  0  0  0
  1 14  2  0  0  0  0
  1 19  1  0  0  0  0
  2  3  1  0  0  0  0
  2 16  1  0  0  0  0
  2 21  1  0  0  0  0
  3  4  1  0  0  0  0
  3 22  1  0  0  0  0
  4  5  1  0  0  0  0
  4 23  1  0  0  0  0
  4 24  1  0  0  0  0
  5  6  4  0  0  0  0
  5 13  4  0  0  0  0
  6  7  4  0  0  0  0
  6 25  1  0  0  0  0
  7  8  4  0  0  0  0
  7 26  1  0  0  0  0
  8  9  4  0  0  0  0
  8 13  4  0  0  0  0
  9 10  4  0  0  0  0
  9 27  1  0  0  0  0
 10 11  4  0  0  0  0
 10 28  1  0  0  0  0
 11 12  4  0  0  0  0
 11 15  1  0  0  0  0
 12 13  4  0  0  0  0
 12 29  1  0  0  0  0
 16 17  2  0  0  0  0
 16 18  1  0  0  0  0
 18 30  1  0  0  0  0
 18 31  1  0  0  0  0
 18 32  1  0  0  0  0
 19 20  1  0  0  0  0
 19 33  1  0  0  0  0
 20 34  1  0  0  0  0
 20 35  1  0  0  0  0
 20 36  1  0  0  0  0
M  END
> <ConfClashScore>
0 

> <ConfOneFourInteractionScore>
-0.960318 

> <ConfScore>
0.516488 

> <ConfScorePBest>
0.0108755 

> <ConfTolerance>
0.85863 

$$$$
5FW.qm
 OpenBabel09182216093D

 36 37  0  0  0  0  0  0  0  0999 V2000
    6.1715    0.6999    1.2570 C   0  0  0  1  0  0  0  0  0  0  0  0
    3.9209   -0.3278    0.9362 N   0  0  0  1  0  0  0  0  0  0  0  0
    5.0592   -0.1785    1.8306 C   0  0  0  1  0  0  0  0  0  0  0  0
    5.6300   -1.5599    2.1660 C   0  0  0  1  0  0  0  0  0  0  0  0
    4.7475   -2.3536    3.0919 C   0  0  0  1  0  0  0  0  0  0  0  0
    3.8453   -3.3289    2.7368 C   0  0  0  1  0  0  0  0  0  0  0  0
    3.2109   -3.8263    3.8566 N   0  0  0  1  0  0  0  0  0  0  0  0
    3.7161   -3.1909    4.9752 C   0  0  0  1  0  0  0  0  0  0  0  0
    3.4156   -3.3627    6.3299 C   0  0  0  1  0  0  0  0  0  0  0  0
    4.0847   -2.5615    7.2504 C   0  0  0  1  0  0  0  0  0  0  0  0
    5.0297   -1.6260    6.7984 C   0  0  0  1  0  0  0  0  0  0  0  0
    5.3470   -1.4380    5.4666 C   0  0  0  1  0  0  0  0  0  0  0  0
    4.6798   -2.2432    4.5241 C   0  0  0  1  0  0  0  0  0  0  0  0
    6.3815    0.7235    0.0450 O   0  0  0  1  0  0  0  0  0  0  0  0
    5.6626   -0.8689    7.7151 F   0  0  0  1  0  0  0  0  0  0  0  0
    2.6653   -0.1077    1.3362 C   0  0  0  1  0  0  0  0  0  0  0  0
    2.3699    0.3212    2.4394 O   0  0  0  1  0  0  0  0  0  0  0  0
    1.5963   -0.3429    0.2715 C   0  0  0  1  0  0  0  0  0  0  0  0
    6.9471    1.3556    2.1348 N   0  0  0  1  0  0  0  0  0  0  0  0
    8.0725    2.1774    1.7154 C   0  0  0  1  0  0  0  0  0  0  0  0
    4.0810   -0.5992    0.0082 H   0  0  0  1  0  0  0  0  0  0  0  0
    4.7248    0.2687    2.7433 H   0  0  0  1  0  0  0  0  0  0  0  0
    6.5840   -1.4300    2.6329 H   0  0  0  1  0  0  0  0  0  0  0  0
    5.7497   -2.1092    1.2556 H   0  0  0  1  0  0  0  0  0  0  0  0
    3.6666   -3.6464    1.7627 H   0  0  0  1  0  0  0  0  0  0  0  0
    2.5158   -4.5171    3.8585 H   0  0  0  1  0  0  0  0  0  0  0  0
    2.7150   -4.0661    6.6395 H   0  0  0  1  0  0  0  0  0  0  0  0
    3.8862   -2.6550    8.2670 H   0  0  0  1  0  0  0  0  0  0  0  0
    6.0502   -0.7304    5.1725 H   0  0  0  1  0  0  0  0  0  0  0  0
    1.5843   -1.3777   -0.0002 H   0  0  0  1  0  0  0  0  0  0  0  0
    1.8165    0.2498   -0.5917 H   0  0  0  1  0  0  0  0  0  0  0  0
    0.6388   -0.0654    0.6604 H   0  0  0  1  0  0  0  0  0  0  0  0
    6.7484    1.2783    3.0914 H   0  0  0  1  0  0  0  0  0  0  0  0
    8.5704    2.5683    2.5780 H   0  0  0  1  0  0  0  0  0  0  0  0
    7.7177    2.9863    1.1115 H   0  0  0  1  0  0  0  0  0  0  0  0
    8.7569    1.5817    1.1482 H   0  0  0  1  0  0  0  0  0  0  0  0
  1  3  1  0  0  0  0
  1 14  2  0  0  0  0
  1 19  1  0  0  0  0
  2  3  1  0  0  0  0
  2 16  1  0  0  0  0
  2 21  1  0  0  0  0
  3  4  1  0  0  0  0
  3 22  1  0  0  0  0
  4  5  1  0  0  0  0
  4 23  1  0  0  0  0
  4 24  1  0  0  0  0
  5  6  4  0  0  0  0
  5 13  4  0  0  0  0
  6  7  4  0  0  0  0
  6 25  1  0  0  0  0
  7  8  4  0  0  0  0
  7 26  1  0  0  0  0
  8  9  4  0  0  0  0
  8 13  4  0  0  0  0
  9 10  4  0  0  0  0
  9 27  1  0  0  0  0
 10 11  4  0  0  0  0
 10 28  1  0  0  0  0
 11 12  4  0  0  0  0
 11 15  1  0  0  0  0
 12 13  4  0  0  0  0
 12 29  1  0  0  0  0
 16 17  2  0  0  0  0
 16 18  1  0  0  0  0
 18 30  1  0  0  0  0
 18 31  1  0  0  0  0
 18 32  1  0  0  0  0
 19 20  1  0  0  0  0
 19 33  1  0  0  0  0
 20 34  1  0  0  0  0
 20 35  1  0  0  0  0
 20 36  1  0  0  0  0
M  END
> <ConfClashScore>
0 

> <ConfOneFourInteractionScore>
-0.986627 

> <ConfScore>
0.51756 

> <ConfScorePBest>
0.0107725 

> <ConfTolerance>
0.519061 

$$$$
5FW.qm
 OpenBabel09182216093D

 36 37  0  0  0  0  0  0  0  0999 V2000
    5.8858    0.5767    0.8660 C   0  0  0  1  0  0  0  0  0  0  0  0
    3.7964   -0.7010    0.7297 N   0  0  0  1  0  0  0  0  0  0  0  0
    4.9158   -0.3393    1.5865 C   0  0  0  1  0  0  0  0  0  0  0  0
    5.6198   -1.5571    2.1704 C   0  0  0  1  0  0  0  0  0  0  0  0
    4.7430   -2.3580    3.0955 C   0  0  0  1  0  0  0  0  0  0  0  0
    3.8458   -3.3232    2.7448 C   0  0  0  1  0  0  0  0  0  0  0  0
    3.2222   -3.8184    3.8613 N   0  0  0  1  0  0  0  0  0  0  0  0
    3.7241   -3.1911    4.9686 C   0  0  0  1  0  0  0  0  0  0  0  0
    3.4215   -3.3552    6.3232 C   0  0  0  1  0  0  0  0  0  0  0  0
    4.0916   -2.5579    7.2254 C   0  0  0  1  0  0  0  0  0  0  0  0
    5.0305   -1.6199    6.8076 C   0  0  0  1  0  0  0  0  0  0  0  0
    5.3340   -1.4612    5.4735 C   0  0  0  1  0  0  0  0  0  0  0  0
    4.6811   -2.2608    4.5291 C   0  0  0  1  0  0  0  0  0  0  0  0
    5.9957    0.5534   -0.3592 O   0  0  0  1  0  0  0  0  0  0  0  0
    5.6532   -0.8537    7.7236 F   0  0  0  1  0  0  0  0  0  0  0  0
    3.0429    0.2153    0.1152 C   0  0  0  1  0  0  0  0  0  0  0  0
    3.1888    1.4231    0.2832 O   0  0  0  1  0  0  0  0  0  0  0  0
    1.9778   -0.3263   -0.8184 C   0  0  0  1  0  0  0  0  0  0  0  0
    6.5988    1.3952    1.6449 N   0  0  0  1  0  0  0  0  0  0  0  0
    7.5899    2.2841    1.0570 C   0  0  0  1  0  0  0  0  0  0  0  0
    3.5881   -1.6496    0.5990 H   0  0  0  1  0  0  0  0  0  0  0  0
    4.5229    0.2150    2.4132 H   0  0  0  1  0  0  0  0  0  0  0  0
    6.4778   -1.2251    2.7168 H   0  0  0  1  0  0  0  0  0  0  0  0
    5.9318   -2.1888    1.3650 H   0  0  0  1  0  0  0  0  0  0  0  0
    3.6612   -3.6384    1.7710 H   0  0  0  1  0  0  0  0  0  0  0  0
    2.5284   -4.5105    3.8653 H   0  0  0  1  0  0  0  0  0  0  0  0
    2.7172   -4.0526    6.6383 H   0  0  0  1  0  0  0  0  0  0  0  0
    3.8913   -2.6596    8.2408 H   0  0  0  1  0  0  0  0  0  0  0  0
    6.0382   -0.7575    5.1725 H   0  0  0  1  0  0  0  0  0  0  0  0
    1.7607   -1.3421   -0.5615 H   0  0  0  1  0  0  0  0  0  0  0  0
    2.3320   -0.2817   -1.8272 H   0  0  0  1  0  0  0  0  0  0  0  0
    1.0894    0.2626   -0.7254 H   0  0  0  1  0  0  0  0  0  0  0  0
    6.4541    1.3970    2.6141 H   0  0  0  1  0  0  0  0  0  0  0  0
    7.1197    2.9117    0.3291 H   0  0  0  1  0  0  0  0  0  0  0  0
    8.3548    1.7030    0.5857 H   0  0  0  1  0  0  0  0  0  0  0  0
    8.0238    2.8910    1.8240 H   0  0  0  1  0  0  0  0  0  0  0  0
  1  3  1  0  0  0  0
  1 14  2  0  0  0  0
  1 19  1  0  0  0  0
  2  3  1  0  0  0  0
  2 16  1  0  0  0  0
  2 21  1  0  0  0  0
  3  4  1  0  0  0  0
  3 22  1  0  0  0  0
  4  5  1  0  0  0  0
  4 23  1  0  0  0  0
  4 24  1  0  0  0  0
  5  6  4  0  0  0  0
  5 13  4  0  0  0  0
  6  7  4  0  0  0  0
  6 25  1  0  0  0  0
  7  8  4  0  0  0  0
  7 26  1  0  0  0  0
  8  9  4  0  0  0  0
  8 13  4  0  0  0  0
  9 10  4  0  0  0  0
  9 27  1  0  0  0  0
 10 11  4  0  0  0  0
 10 28  1  0  0  0  0
 11 12  4  0  0  0  0
 11 15  1  0  0  0  0
 12 13  4  0  0  0  0
 12 29  1  0  0  0  0
 16 17  2  0  0  0  0
 16 18  1  0  0  0  0
 18 30  1  0  0  0  0
 18 31  1  0  0  0  0
 18 32  1  0  0  0  0
 19 20  1  0  0  0  0
 19 33  1  0  0  0  0
 20 34  1  0  0  0  0
 20 35  1  0  0  0  0
 20 36  1  0  0  0  0
M  END
> <ConfClashScore>
0 

> <ConfOneFourInteractionScore>
-0.981931 

> <ConfScore>
0.517677 

> <ConfScorePBest>
0.0106695 

> <ConfTolerance>
0.501005 

$$$$
5FW.qm
 OpenBabel09182216093D

 36 37  0  0  0  0  0  0  0  0999 V2000
    7.8500   -1.9722    3.2110 C   0  0  0  1  0  0  0  0  0  0  0  0
    6.9616   -3.5098    1.5425 N   0  0  0  1  0  0  0  0  0  0  0  0
    7.0170   -2.1144    1.9520 C   0  0  0  1  0  0  0  0  0  0  0  0
    5.6198   -1.5571    2.1704 C   0  0  0  1  0  0  0  0  0  0  0  0
    4.7430   -2.3580    3.0955 C   0  0  0  1  0  0  0  0  0  0  0  0
    3.8458   -3.3232    2.7448 C   0  0  0  1  0  0  0  0  0  0  0  0
    3.2222   -3.8184    3.8613 N   0  0  0  1  0  0  0  0  0  0  0  0
    3.7241   -3.1911    4.9686 C   0  0  0  1  0  0  0  0  0  0  0  0
    3.4215   -3.3552    6.3232 C   0  0  0  1  0  0  0  0  0  0  0  0
    4.0916   -2.5579    7.2254 C   0  0  0  1  0  0  0  0  0  0  0  0
    5.0305   -1.6199    6.8076 C   0  0  0  1  0  0  0  0  0  0  0  0
    5.3340   -1.4612    5.4735 C   0  0  0  1  0  0  0  0  0  0  0  0
    4.6811   -2.2608    4.5291 C   0  0  0  1  0  0  0  0  0  0  0  0
    8.6281   -1.0321    3.3667 O   0  0  0  1  0  0  0  0  0  0  0  0
    5.6532   -0.8537    7.7236 F   0  0  0  1  0  0  0  0  0  0  0  0
    8.0397   -4.1700    1.1103 C   0  0  0  1  0  0  0  0  0  0  0  0
    9.1333   -3.6446    0.9821 O   0  0  0  1  0  0  0  0  0  0  0  0
    7.8272   -5.6349    0.7817 C   0  0  0  1  0  0  0  0  0  0  0  0
    7.6491   -2.9537    4.1046 N   0  0  0  1  0  0  0  0  0  0  0  0
    8.3631   -2.9448    5.3727 C   0  0  0  1  0  0  0  0  0  0  0  0
    6.1037   -3.9816    1.5853 H   0  0  0  1  0  0  0  0  0  0  0  0
    7.4833   -1.5428    1.1770 H   0  0  0  1  0  0  0  0  0  0  0  0
    5.1335   -1.5034    1.2188 H   0  0  0  1  0  0  0  0  0  0  0  0
    5.7171   -0.5725    2.5778 H   0  0  0  1  0  0  0  0  0  0  0  0
    3.6612   -3.6384    1.7710 H   0  0  0  1  0  0  0  0  0  0  0  0
    2.5284   -4.5105    3.8653 H   0  0  0  1  0  0  0  0  0  0  0  0
    2.7172   -4.0526    6.6383 H   0  0  0  1  0  0  0  0  0  0  0  0
    3.8913   -2.6596    8.2408 H   0  0  0  1  0  0  0  0  0  0  0  0
    6.0382   -0.7575    5.1725 H   0  0  0  1  0  0  0  0  0  0  0  0
    7.0031   -6.0126    1.3501 H   0  0  0  1  0  0  0  0  0  0  0  0
    8.7109   -6.1868    1.0253 H   0  0  0  1  0  0  0  0  0  0  0  0
    7.6175   -5.7392   -0.2624 H   0  0  0  1  0  0  0  0  0  0  0  0
    7.0203   -3.6777    3.9026 H   0  0  0  1  0  0  0  0  0  0  0  0
    8.0498   -2.1023    5.9531 H   0  0  0  1  0  0  0  0  0  0  0  0
    9.4151   -2.8796    5.1889 H   0  0  0  1  0  0  0  0  0  0  0  0
    8.1493   -3.8460    5.9084 H   0  0  0  1  0  0  0  0  0  0  0  0
  1  3  1  0  0  0  0
  1 14  2  0  0  0  0
  1 19  1  0  0  0  0
  2  3  1  0  0  0  0
  2 16  1  0  0  0  0
  2 21  1  0  0  0  0
  3  4  1  0  0  0  0
  3 22  1  0  0  0  0
  4  5  1  0  0  0  0
  4 23  1  0  0  0  0
  4 24  1  0  0  0  0
  5  6  4  0  0  0  0
  5 13  4  0  0  0  0
  6  7  4  0  0  0  0
  6 25  1  0  0  0  0
  7  8  4  0  0  0  0
  7 26  1  0  0  0  0
  8  9  4  0  0  0  0
  8 13  4  0  0  0  0
  9 10  4  0  0  0  0
  9 27  1  0  0  0  0
 10 11  4  0  0  0  0
 10 28  1  0  0  0  0
 11 12  4  0  0  0  0
 11 15  1  0  0  0  0
 12 13  4  0  0  0  0
 12 29  1  0  0  0  0
 16 17  2  0  0  0  0
 16 18  1  0  0  0  0
 18 30  1  0  0  0  0
 18 31  1  0  0  0  0
 18 32  1  0  0  0  0
 19 20  1  0  0  0  0
 19 33  1  0  0  0  0
 20 34  1  0  0  0  0
 20 35  1  0  0  0  0
 20 36  1  0  0  0  0
M  END
> <ConfClashScore>
0 

> <ConfOneFourInteractionScore>
-0.931937 

> <ConfScore>
0.525644 

> <ConfScorePBest>
0.0105665 

> <ConfTolerance>
0.329834 

$$$$
5FW.qm
 OpenBabel09182216093D

 36 37  0  0  0  0  0  0  0  0999 V2000
    7.6071   -1.5232    0.6334 C   0  0  0  1  0  0  0  0  0  0  0  0
    7.6804   -2.7803    2.7265 N   0  0  0  1  0  0  0  0  0  0  0  0
    6.8156   -2.3531    1.6383 C   0  0  0  1  0  0  0  0  0  0  0  0
    5.6198   -1.5571    2.1704 C   0  0  0  1  0  0  0  0  0  0  0  0
    4.7430   -2.3580    3.0955 C   0  0  0  1  0  0  0  0  0  0  0  0
    3.8458   -3.3232    2.7448 C   0  0  0  1  0  0  0  0  0  0  0  0
    3.2222   -3.8184    3.8613 N   0  0  0  1  0  0  0  0  0  0  0  0
    3.7241   -3.1911    4.9686 C   0  0  0  1  0  0  0  0  0  0  0  0
    3.4215   -3.3552    6.3232 C   0  0  0  1  0  0  0  0  0  0  0  0
    4.0916   -2.5579    7.2254 C   0  0  0  1  0  0  0  0  0  0  0  0
    5.0305   -1.6199    6.8076 C   0  0  0  1  0  0  0  0  0  0  0  0
    5.3340   -1.4612    5.4735 C   0  0  0  1  0  0  0  0  0  0  0  0
    4.6811   -2.2608    4.5291 C   0  0  0  1  0  0  0  0  0  0  0  0
    8.5565   -0.8291    0.9872 O   0  0  0  1  0  0  0  0  0  0  0  0
    5.6532   -0.8537    7.7236 F   0  0  0  1  0  0  0  0  0  0  0  0
    8.8630   -3.3723    2.4595 C   0  0  0  1  0  0  0  0  0  0  0  0
    9.2651   -3.5797    1.3154 O   0  0  0  1  0  0  0  0  0  0  0  0
    9.6854   -3.7758    3.6678 C   0  0  0  1  0  0  0  0  0  0  0  0
    7.1993   -1.6054   -0.6363 N   0  0  0  1  0  0  0  0  0  0  0  0
    7.7291   -0.7411   -1.6804 C   0  0  0  1  0  0  0  0  0  0  0  0
    7.4037   -2.6380    3.6557 H   0  0  0  1  0  0  0  0  0  0  0  0
    6.4391   -3.2174    1.1324 H   0  0  0  1  0  0  0  0  0  0  0  0
    5.0301   -1.2318    1.3389 H   0  0  0  1  0  0  0  0  0  0  0  0
    5.9876   -0.7048    2.7026 H   0  0  0  1  0  0  0  0  0  0  0  0
    3.6612   -3.6384    1.7710 H   0  0  0  1  0  0  0  0  0  0  0  0
    2.5284   -4.5105    3.8653 H   0  0  0  1  0  0  0  0  0  0  0  0
    2.7172   -4.0526    6.6383 H   0  0  0  1  0  0  0  0  0  0  0  0
    3.8913   -2.6596    8.2408 H   0  0  0  1  0  0  0  0  0  0  0  0
    6.0382   -0.7575    5.1725 H   0  0  0  1  0  0  0  0  0  0  0  0
    9.8382   -2.9236    4.2966 H   0  0  0  1  0  0  0  0  0  0  0  0
   10.6324   -4.1544    3.3442 H   0  0  0  1  0  0  0  0  0  0  0  0
    9.1658   -4.5342    4.2154 H   0  0  0  1  0  0  0  0  0  0  0  0
    6.5199   -2.2708   -0.8727 H   0  0  0  1  0  0  0  0  0  0  0  0
    7.0745    0.0939   -1.8191 H   0  0  0  1  0  0  0  0  0  0  0  0
    7.8035   -1.2914   -2.5950 H   0  0  0  1  0  0  0  0  0  0  0  0
    8.6987   -0.3902   -1.3947 H   0  0  0  1  0  0  0  0  0  0  0  0
  1  3  1  0  0  0  0
  1 14  2  0  0  0  0
  1 19  1  0  0  0  0
  2  3  1  0  0  0  0
  2 16  1  0  0  0  0
  2 21  1  0  0  0  0
  3  4  1  0  0  0  0
  3 22  1  0  0  0  0
  4  5  1  0  0  0  0
  4 23  1  0  0  0  0
  4 24  1  0  0  0  0
  5  6  4  0  0  0  0
  5 13  4  0  0  0  0
  6  7  4  0  0  0  0
  6 25  1  0  0  0  0
  7  8  4  0  0  0  0
  7 26  1  0  0  0  0
  8  9  4  0  0  0  0
  8 13  4  0  0  0  0
  9 10  4  0  0  0  0
  9 27  1  0  0  0  0
 10 11  4  0  0  0  0
 10 28  1  0  0  0  0
 11 12  4  0  0  0  0
 11 15  1  0  0  0  0
 12 13  4  0  0  0  0
 12 29  1  0  0  0  0
 16 17  2  0  0  0  0
 16 18  1  0  0  0  0
 18 30  1  0  0  0  0
 18 31  1  0  0  0  0
 18 32  1  0  0  0  0
 19 20  1  0  0  0  0
 19 33  1  0  0  0  0
 20 34  1  0  0  0  0
 20 35  1  0  0  0  0
 20 36  1  0  0  0  0
M  END
> <ConfClashScore>
0 

> <ConfOneFourInteractionScore>
-0.981931 

> <ConfScore>
0.53584 

> <ConfScorePBest>
0.0104635 

> <ConfTolerance>
0.609956 

$$$$
5FW.qm
 OpenBabel09182216093D

 36 37  0  0  0  0  0  0  0  0999 V2000
    3.6419   -0.9926    0.7431 C   0  0  0  1  0  0  0  0  0  0  0  0
    4.5995    0.6697    2.2582 N   0  0  0  1  0  0  0  0  0  0  0  0
    4.9143   -0.4576    1.3934 C   0  0  0  1  0  0  0  0  0  0  0  0
    5.6198   -1.5571    2.1704 C   0  0  0  1  0  0  0  0  0  0  0  0
    4.7430   -2.3580    3.0955 C   0  0  0  1  0  0  0  0  0  0  0  0
    3.8458   -3.3232    2.7448 C   0  0  0  1  0  0  0  0  0  0  0  0
    3.2222   -3.8184    3.8613 N   0  0  0  1  0  0  0  0  0  0  0  0
    3.7241   -3.1911    4.9686 C   0  0  0  1  0  0  0  0  0  0  0  0
    3.4215   -3.3552    6.3232 C   0  0  0  1  0  0  0  0  0  0  0  0
    4.0916   -2.5579    7.2254 C   0  0  0  1  0  0  0  0  0  0  0  0
    5.0305   -1.6199    6.8076 C   0  0  0  1  0  0  0  0  0  0  0  0
    5.3340   -1.4612    5.4735 C   0  0  0  1  0  0  0  0  0  0  0  0
    4.6811   -2.2608    4.5291 C   0  0  0  1  0  0  0  0  0  0  0  0
    3.6488   -1.4334   -0.4032 O   0  0  0  1  0  0  0  0  0  0  0  0
    5.6532   -0.8537    7.7236 F   0  0  0  1  0  0  0  0  0  0  0  0
    3.8758    1.7112    1.8380 C   0  0  0  1  0  0  0  0  0  0  0  0
    3.4672    1.8177    0.6934 O   0  0  0  1  0  0  0  0  0  0  0  0
    3.5841    2.7738    2.8797 C   0  0  0  1  0  0  0  0  0  0  0  0
    2.5355   -0.9466    1.5019 N   0  0  0  1  0  0  0  0  0  0  0  0
    1.2230   -1.3047    0.9852 C   0  0  0  1  0  0  0  0  0  0  0  0
    4.9298    0.6647    3.1808 H   0  0  0  1  0  0  0  0  0  0  0  0
    5.5714   -0.1277    0.6161 H   0  0  0  1  0  0  0  0  0  0  0  0
    6.3914   -1.1038    2.7570 H   0  0  0  1  0  0  0  0  0  0  0  0
    6.0575   -2.2315    1.4643 H   0  0  0  1  0  0  0  0  0  0  0  0
    3.6612   -3.6384    1.7710 H   0  0  0  1  0  0  0  0  0  0  0  0
    2.5284   -4.5105    3.8653 H   0  0  0  1  0  0  0  0  0  0  0  0
    2.7172   -4.0526    6.6383 H   0  0  0  1  0  0  0  0  0  0  0  0
    3.8913   -2.6596    8.2408 H   0  0  0  1  0  0  0  0  0  0  0  0
    6.0382   -0.7575    5.1725 H   0  0  0  1  0  0  0  0  0  0  0  0
    2.8407    2.4129    3.5595 H   0  0  0  1  0  0  0  0  0  0  0  0
    3.2254    3.6582    2.3959 H   0  0  0  1  0  0  0  0  0  0  0  0
    4.4803    3.0000    3.4187 H   0  0  0  1  0  0  0  0  0  0  0  0
    2.6143   -0.6620    2.4364 H   0  0  0  1  0  0  0  0  0  0  0  0
    0.4679   -0.7854    1.5374 H   0  0  0  1  0  0  0  0  0  0  0  0
    1.0761   -2.3598    1.0860 H   0  0  0  1  0  0  0  0  0  0  0  0
    1.1602   -1.0324   -0.0476 H   0  0  0  1  0  0  0  0  0  0  0  0
  1  3  1  0  0  0  0
  1 14  2  0  0  0  0
  1 19  1  0  0  0  0
  2  3  1  0  0  0  0
  2 16  1  0  0  0  0
  2 21  1  0  0  0  0
  3  4  1  0  0  0  0
  3 22  1  0  0  0  0
  4  5  1  0  0  0  0
  4 23  1  0  0  0  0
  4 24  1  0  0  0  0
  5  6  4  0  0  0  0
  5 13  4  0  0  0  0
  6  7  4  0  0  0  0
  6 25  1  0  0  0  0
  7  8  4  0  0  0  0
  7 26  1  0  0  0  0
  8  9  4  0  0  0  0
  8 13  4  0  0  0  0
  9 10  4  0  0  0  0
  9 27  1  0  0  0  0
 10 11  4  0  0  0  0
 10 28  1  0  0  0  0
 11 12  4  0  0  0  0
 11 15  1  0  0  0  0
 12 13  4  0  0  0  0
 12 29  1  0  0  0  0
 16 17  2  0  0  0  0
 16 18  1  0  0  0  0
 18 30  1  0  0  0  0
 18 31  1  0  0  0  0
 18 32  1  0  0  0  0
 19 20  1  0  0  0  0
 19 33  1  0  0  0  0
 20 34  1  0  0  0  0
 20 35  1  0  0  0  0
 20 36  1  0  0  0  0
M  END
> <ConfClashScore>
0 

> <ConfOneFourInteractionScore>
-0.957074 

> <ConfScore>
0.536438 

> <ConfScorePBest>
0.0103605 

> <ConfTolerance>
0.495971 

$$$$
5FW.qm
 OpenBabel09182216093D

 36 37  0  0  0  0  0  0  0  0999 V2000
    4.1832    0.4956    2.4342 C   0  0  0  1  0  0  0  0  0  0  0  0
    5.8506    0.3652    0.6304 N   0  0  0  1  0  0  0  0  0  0  0  0
    4.9328   -0.4038    1.4576 C   0  0  0  1  0  0  0  0  0  0  0  0
    5.6198   -1.5571    2.1704 C   0  0  0  1  0  0  0  0  0  0  0  0
    4.7430   -2.3580    3.0955 C   0  0  0  1  0  0  0  0  0  0  0  0
    3.8458   -3.3232    2.7448 C   0  0  0  1  0  0  0  0  0  0  0  0
    3.2222   -3.8184    3.8613 N   0  0  0  1  0  0  0  0  0  0  0  0
    3.7241   -3.1911    4.9686 C   0  0  0  1  0  0  0  0  0  0  0  0
    3.4215   -3.3552    6.3232 C   0  0  0  1  0  0  0  0  0  0  0  0
    4.0916   -2.5579    7.2254 C   0  0  0  1  0  0  0  0  0  0  0  0
    5.0305   -1.6199    6.8076 C   0  0  0  1  0  0  0  0  0  0  0  0
    5.3340   -1.4612    5.4735 C   0  0  0  1  0  0  0  0  0  0  0  0
    4.6811   -2.2608    4.5291 C   0  0  0  1  0  0  0  0  0  0  0  0
    4.7289    1.2335    3.2380 O   0  0  0  1  0  0  0  0  0  0  0  0
    5.6532   -0.8537    7.7236 F   0  0  0  1  0  0  0  0  0  0  0  0
    5.7014    0.4702   -0.6932 C   0  0  0  1  0  0  0  0  0  0  0  0
    4.8186   -0.1177   -1.3165 O   0  0  0  1  0  0  0  0  0  0  0  0
    6.6972    1.3698   -1.3990 C   0  0  0  1  0  0  0  0  0  0  0  0
    2.8519    0.4415    2.3725 N   0  0  0  1  0  0  0  0  0  0  0  0
    1.9469    1.2022    3.2212 C   0  0  0  1  0  0  0  0  0  0  0  0
    6.6043    0.8219    1.0591 H   0  0  0  1  0  0  0  0  0  0  0  0
    4.1987   -0.8362    0.8102 H   0  0  0  1  0  0  0  0  0  0  0  0
    6.4271   -1.1553    2.7463 H   0  0  0  1  0  0  0  0  0  0  0  0
    6.0077   -2.2210    1.4262 H   0  0  0  1  0  0  0  0  0  0  0  0
    3.6612   -3.6384    1.7710 H   0  0  0  1  0  0  0  0  0  0  0  0
    2.5284   -4.5105    3.8653 H   0  0  0  1  0  0  0  0  0  0  0  0
    2.7172   -4.0526    6.6383 H   0  0  0  1  0  0  0  0  0  0  0  0
    3.8913   -2.6596    8.2408 H   0  0  0  1  0  0  0  0  0  0  0  0
    6.0382   -0.7575    5.1725 H   0  0  0  1  0  0  0  0  0  0  0  0
    7.6919    1.0378   -1.1861 H   0  0  0  1  0  0  0  0  0  0  0  0
    6.5757    2.3755   -1.0543 H   0  0  0  1  0  0  0  0  0  0  0  0
    6.5268    1.3310   -2.4546 H   0  0  0  1  0  0  0  0  0  0  0  0
    2.4531   -0.1555    1.7054 H   0  0  0  1  0  0  0  0  0  0  0  0
    2.3713    1.2999    4.1985 H   0  0  0  1  0  0  0  0  0  0  0  0
    1.0088    0.6920    3.2893 H   0  0  0  1  0  0  0  0  0  0  0  0
    1.7952    2.1739    2.7996 H   0  0  0  1  0  0  0  0  0  0  0  0
  1  3  1  0  0  0  0
  1 14  2  0  0  0  0
  1 19  1  0  0  0  0
  2  3  1  0  0  0  0
  2 16  1  0  0  0  0
  2 21  1  0  0  0  0
  3  4  1  0  0  0  0
  3 22  1  0  0  0  0
  4  5  1  0  0  0  0
  4 23  1  0  0  0  0
  4 24  1  0  0  0  0
  5  6  4  0  0  0  0
  5 13  4  0  0  0  0
  6  7  4  0  0  0  0
  6 25  1  0  0  0  0
  7  8  4  0  0  0  0
  7 26  1  0  0  0  0
  8  9  4  0  0  0  0
  8 13  4  0  0  0  0
  9 10  4  0  0  0  0
  9 27  1  0  0  0  0
 10 11  4  0  0  0  0
 10 28  1  0  0  0  0
 11 12  4  0  0  0  0
 11 15  1  0  0  0  0
 12 13  4  0  0  0  0
 12 29  1  0  0  0  0
 16 17  2  0  0  0  0
 16 18  1  0  0  0  0
 18 30  1  0  0  0  0
 18 31  1  0  0  0  0
 18 32  1  0  0  0  0
 19 20  1  0  0  0  0
 19 33  1  0  0  0  0
 20 34  1  0  0  0  0
 20 35  1  0  0  0  0
 20 36  1  0  0  0  0
M  END
> <ConfClashScore>
0 

> <ConfOneFourInteractionScore>
-0.986627 

> <ConfScore>
0.548688 

> <ConfScorePBest>
0.0102575 

> <ConfTolerance>
0.388093 

$$$$
5FW.qm
 OpenBabel09182216093D

 36 37  0  0  0  0  0  0  0  0999 V2000
    7.8296   -1.0032    1.1660 C   0  0  0  1  0  0  0  0  0  0  0  0
    7.6205   -1.2237    3.5513 N   0  0  0  1  0  0  0  0  0  0  0  0
    7.1143   -1.7426    2.2894 C   0  0  0  1  0  0  0  0  0  0  0  0
    5.6198   -1.5571    2.1704 C   0  0  0  1  0  0  0  0  0  0  0  0
    4.7430   -2.3580    3.0955 C   0  0  0  1  0  0  0  0  0  0  0  0
    3.8458   -3.3232    2.7448 C   0  0  0  1  0  0  0  0  0  0  0  0
    3.2222   -3.8184    3.8613 N   0  0  0  1  0  0  0  0  0  0  0  0
    3.7241   -3.1911    4.9686 C   0  0  0  1  0  0  0  0  0  0  0  0
    3.4215   -3.3552    6.3232 C   0  0  0  1  0  0  0  0  0  0  0  0
    4.0916   -2.5579    7.2254 C   0  0  0  1  0  0  0  0  0  0  0  0
    5.0305   -1.6199    6.8076 C   0  0  0  1  0  0  0  0  0  0  0  0
    5.3340   -1.4612    5.4735 C   0  0  0  1  0  0  0  0  0  0  0  0
    4.6811   -2.2608    4.5291 C   0  0  0  1  0  0  0  0  0  0  0  0
    8.2474    0.1329    1.2963 O   0  0  0  1  0  0  0  0  0  0  0  0
    5.6532   -0.8537    7.7236 F   0  0  0  1  0  0  0  0  0  0  0  0
    8.3707   -1.9582    4.3742 C   0  0  0  1  0  0  0  0  0  0  0  0
    8.6738   -3.1273    4.1401 O   0  0  0  1  0  0  0  0  0  0  0  0
    8.8384   -1.2617    5.6372 C   0  0  0  1  0  0  0  0  0  0  0  0
    8.0075   -1.6189   -0.0063 N   0  0  0  1  0  0  0  0  0  0  0  0
    8.5859   -0.9442   -1.1588 C   0  0  0  1  0  0  0  0  0  0  0  0
    7.4028   -0.3026    3.8053 H   0  0  0  1  0  0  0  0  0  0  0  0
    7.3372   -2.7863    2.2125 H   0  0  0  1  0  0  0  0  0  0  0  0
    5.3445   -1.8115    1.1682 H   0  0  0  1  0  0  0  0  0  0  0  0
    5.4106   -0.5227    2.3466 H   0  0  0  1  0  0  0  0  0  0  0  0
    3.6612   -3.6384    1.7710 H   0  0  0  1  0  0  0  0  0  0  0  0
    2.5284   -4.5105    3.8653 H   0  0  0  1  0  0  0  0  0  0  0  0
    2.7172   -4.0526    6.6383 H   0  0  0  1  0  0  0  0  0  0  0  0
    3.8913   -2.6596    8.2408 H   0  0  0  1  0  0  0  0  0  0  0  0
    6.0382   -0.7575    5.1725 H   0  0  0  1  0  0  0  0  0  0  0  0
    8.0794   -0.5875    5.9753 H   0  0  0  1  0  0  0  0  0  0  0  0
    9.7349   -0.7150    5.4316 H   0  0  0  1  0  0  0  0  0  0  0  0
    9.0309   -1.9911    6.3960 H   0  0  0  1  0  0  0  0  0  0  0  0
    7.7392   -2.5574   -0.0932 H   0  0  0  1  0  0  0  0  0  0  0  0
    8.2551    0.0731   -1.1803 H   0  0  0  1  0  0  0  0  0  0  0  0
    8.2746   -1.4392   -2.0549 H   0  0  0  1  0  0  0  0  0  0  0  0
    9.6533   -0.9705   -1.0885 H   0  0  0  1  0  0  0  0  0  0  0  0
  1  3  1  0  0  0  0
  1 14  2  0  0  0  0
  1 19  1  0  0  0  0
  2  3  1  0  0  0  0
  2 16  1  0  0  0  0
  2 21  1  0  0  0  0
  3  4  1  0  0  0  0
  3 22  1  0  0  0  0
  4  5  1  0  0  0  0
  4 23  1  0  0  0  0
  4 24  1  0  0  0  0
  5  6  4  0  0  0  0
  5 13  4  0  0  0  0
  6  7  4  0  0  0  0
  6 25  1  0  0  0  0
  7  8  4  0  0  0  0
  7 26  1  0  0  0  0
  8  9  4  0  0  0  0
  8 13  4  0  0  0  0
  9 10  4  0  0  0  0
  9 27  1  0  0  0  0
 10 11  4  0  0  0  0
 10 28  1  0  0  0  0
 11 12  4  0  0  0  0
 11 15  1  0  0  0  0
 12 13  4  0  0  0  0
 12 29  1  0  0  0  0
 16 17  2  0  0  0  0
 16 18  1  0  0  0  0
 18 30  1  0  0  0  0
 18 31  1  0  0  0  0
 18 32  1  0  0  0  0
 19 20  1  0  0  0  0
 19 33  1  0  0  0  0
 20 34  1  0  0  0  0
 20 35  1  0  0  0  0
 20 36  1  0  0  0  0
M  END
> <ConfClashScore>
0 

> <ConfOneFourInteractionScore>
-0.981931 

> <ConfScore>
0.554946 

> <ConfScorePBest>
0.0101545 

> <ConfTolerance>
0.530457 

$$$$
5FW.qm
 OpenBabel09182216093D

 36 37  0  0  0  0  0  0  0  0999 V2000
    7.0274   -1.7289    0.0369 C   0  0  0  1  0  0  0  0  0  0  0  0
    7.4111   -3.2308    1.9000 N   0  0  0  1  0  0  0  0  0  0  0  0
    6.3830   -2.4720    1.2020 C   0  0  0  1  0  0  0  0  0  0  0  0
    5.6255   -1.5520    2.1639 C   0  0  0  1  0  0  0  0  0  0  0  0
    4.7424   -2.3585    3.0958 C   0  0  0  1  0  0  0  0  0  0  0  0
    3.8452   -3.3238    2.7453 C   0  0  0  1  0  0  0  0  0  0  0  0
    3.2217   -3.8188    3.8619 N   0  0  0  1  0  0  0  0  0  0  0  0
    3.7237   -3.1914    4.9692 C   0  0  0  1  0  0  0  0  0  0  0  0
    3.4212   -3.3554    6.3238 C   0  0  0  1  0  0  0  0  0  0  0  0
    4.0915   -2.5581    7.2258 C   0  0  0  1  0  0  0  0  0  0  0  0
    5.0302   -1.6201    6.8079 C   0  0  0  1  0  0  0  0  0  0  0  0
    5.3337   -1.4616    5.4737 C   0  0  0  1  0  0  0  0  0  0  0  0
    4.6806   -2.2612    4.5295 C   0  0  0  1  0  0  0  0  0  0  0  0
    8.1215   -1.1791    0.1572 O   0  0  0  1  0  0  0  0  0  0  0  0
    5.6531   -0.8538    7.7237 F   0  0  0  1  0  0  0  0  0  0  0  0
    7.3118   -4.5707    2.0010 C   0  0  0  1  0  0  0  0  0  0  0  0
    6.3861   -5.2129    1.5067 O   0  0  0  1  0  0  0  0  0  0  0  0
    8.4280   -5.2606    2.7745 C   0  0  0  1  0  0  0  0  0  0  0  0
    6.3296   -1.7190   -1.1023 N   0  0  0  1  0  0  0  0  0  0  0  0
    6.8276   -0.9094   -2.2044 C   0  0  0  1  0  0  0  0  0  0  0  0
    8.1770   -2.7660    2.2972 H   0  0  0  1  0  0  0  0  0  0  0  0
    5.6745   -3.1612    0.7923 H   0  0  0  1  0  0  0  0  0  0  0  0
    5.0159   -0.8786    1.5983 H   0  0  0  1  0  0  0  0  0  0  0  0
    6.3305   -0.9940    2.7440 H   0  0  0  1  0  0  0  0  0  0  0  0
    3.6604   -3.6391    1.7716 H   0  0  0  1  0  0  0  0  0  0  0  0
    2.5278   -4.5109    3.8661 H   0  0  0  1  0  0  0  0  0  0  0  0
    2.7170   -4.0528    6.6390 H   0  0  0  1  0  0  0  0  0  0  0  0
    3.8912   -2.6596    8.2413 H   0  0  0  1  0  0  0  0  0  0  0  0
    6.0378   -0.7579    5.1726 H   0  0  0  1  0  0  0  0  0  0  0  0
    8.3538   -5.0070    3.8113 H   0  0  0  1  0  0  0  0  0  0  0  0
    9.3757   -4.9388    2.3959 H   0  0  0  1  0  0  0  0  0  0  0  0
    8.3388   -6.3207    2.6596 H   0  0  0  1  0  0  0  0  0  0  0  0
    5.5058   -2.2420   -1.1933 H   0  0  0  1  0  0  0  0  0  0  0  0
    7.8975   -0.9065   -2.1905 H   0  0  0  1  0  0  0  0  0  0  0  0
    6.4671    0.0928   -2.1017 H   0  0  0  1  0  0  0  0  0  0  0  0
    6.4843   -1.3193   -3.1312 H   0  0  0  1  0  0  0  0  0  0  0  0
  1  3  1  0  0  0  0
  1 14  2  0  0  0  0
  1 19  1  0  0  0  0
  2  3  1  0  0  0  0
  2 16  1  0  0  0  0
  2 21  1  0  0  0  0
  3  4  1  0  0  0  0
  3 22  1  0  0  0  0
  4  5  1  0  0  0  0
  4 23  1  0  0  0  0
  4 24  1  0  0  0  0
  5  6  4  0  0  0  0
  5 13  4  0  0  0  0
  6  7  4  0  0  0  0
  6 25  1  0  0  0  0
  7  8  4  0  0  0  0
  7 26  1  0  0  0  0
  8  9  4  0  0  0  0
  8 13  4  0  0  0  0
  9 10  4  0  0  0  0
  9 27  1  0  0  0  0
 10 11  4  0  0  0  0
 10 28  1  0  0  0  0
 11 12  4  0  0  0  0
 11 15  1  0  0  0  0
 12 13  4  0  0  0  0
 12 29  1  0  0  0  0
 16 17  2  0  0  0  0
 16 18  1  0  0  0  0
 18 30  1  0  0  0  0
 18 31  1  0  0  0  0
 18 32  1  0  0  0  0
 19 20  1  0  0  0  0
 19 33  1  0  0  0  0
 20 34  1  0  0  0  0
 20 35  1  0  0  0  0
 20 36  1  0  0  0  0
M  END
> <ConfClashScore>
0 

> <ConfOneFourInteractionScore>
-0.978947 

> <ConfScore>
0.555984 

> <ConfScorePBest>
0.0100515 

> <ConfTolerance>
0.707328 

$$$$
5FW.qm
 OpenBabel09182216093D

 36 37  0  0  0  0  0  0  0  0999 V2000
    7.9691   -2.3273    2.9102 C   0  0  0  1  0  0  0  0  0  0  0  0
    6.5723   -3.7077    1.4075 N   0  0  0  1  0  0  0  0  0  0  0  0
    6.8984   -2.3291    1.8302 C   0  0  0  1  0  0  0  0  0  0  0  0
    5.6198   -1.5571    2.1704 C   0  0  0  1  0  0  0  0  0  0  0  0
    4.7430   -2.3580    3.0955 C   0  0  0  1  0  0  0  0  0  0  0  0
    3.8458   -3.3232    2.7448 C   0  0  0  1  0  0  0  0  0  0  0  0
    3.2222   -3.8184    3.8613 N   0  0  0  1  0  0  0  0  0  0  0  0
    3.7241   -3.1911    4.9686 C   0  0  0  1  0  0  0  0  0  0  0  0
    3.4215   -3.3552    6.3232 C   0  0  0  1  0  0  0  0  0  0  0  0
    4.0916   -2.5579    7.2254 C   0  0  0  1  0  0  0  0  0  0  0  0
    5.0305   -1.6199    6.8076 C   0  0  0  1  0  0  0  0  0  0  0  0
    5.3340   -1.4612    5.4735 C   0  0  0  1  0  0  0  0  0  0  0  0
    4.6811   -2.2608    4.5291 C   0  0  0  1  0  0  0  0  0  0  0  0
    8.6397   -1.3401    3.1632 O   0  0  0  1  0  0  0  0  0  0  0  0
    5.6532   -0.8537    7.7236 F   0  0  0  1  0  0  0  0  0  0  0  0
    7.4332   -4.5583    0.8465 C   0  0  0  1  0  0  0  0  0  0  0  0
    8.6262   -4.2926    0.7059 O   0  0  0  1  0  0  0  0  0  0  0  0
    6.9011   -5.9416    0.4708 C   0  0  0  1  0  0  0  0  0  0  0  0
    8.1876   -3.4457    3.6110 N   0  0  0  1  0  0  0  0  0  0  0  0
    9.2351   -3.6827    4.5930 C   0  0  0  1  0  0  0  0  0  0  0  0
    5.6545   -4.0202    1.5501 H   0  0  0  1  0  0  0  0  0  0  0  0
    7.3267   -1.8383    0.9813 H   0  0  0  1  0  0  0  0  0  0  0  0
    5.0829   -1.3525    1.2677 H   0  0  0  1  0  0  0  0  0  0  0  0
    5.8826   -0.6356    2.6464 H   0  0  0  1  0  0  0  0  0  0  0  0
    3.6612   -3.6384    1.7710 H   0  0  0  1  0  0  0  0  0  0  0  0
    2.5284   -4.5105    3.8653 H   0  0  0  1  0  0  0  0  0  0  0  0
    2.7172   -4.0526    6.6383 H   0  0  0  1  0  0  0  0  0  0  0  0
    3.8913   -2.6596    8.2408 H   0  0  0  1  0  0  0  0  0  0  0  0
    6.0382   -0.7575    5.1725 H   0  0  0  1  0  0  0  0  0  0  0  0
    7.5688   -6.6929    0.8378 H   0  0  0  1  0  0  0  0  0  0  0  0
    6.8287   -6.0185   -0.5940 H   0  0  0  1  0  0  0  0  0  0  0  0
    5.9335   -6.0814    0.9057 H   0  0  0  1  0  0  0  0  0  0  0  0
    7.5722   -4.1900    3.4441 H   0  0  0  1  0  0  0  0  0  0  0  0
   10.0903   -3.0856    4.3542 H   0  0  0  1  0  0  0  0  0  0  0  0
    9.5080   -4.7173    4.5803 H   0  0  0  1  0  0  0  0  0  0  0  0
    8.8773   -3.4196    5.5664 H   0  0  0  1  0  0  0  0  0  0  0  0
  1  3  1  0  0  0  0
  1 14  2  0  0  0  0
  1 19  1  0  0  0  0
  2  3  1  0  0  0  0
  2 16  1  0  0  0  0
  2 21  1  0  0  0  0
  3  4  1  0  0  0  0
  3 22  1  0  0  0  0
  4  5  1  0  0  0  0
  4 23  1  0  0  0  0
  4 24  1  0  0  0  0
  5  6  4  0  0  0  0
  5 13  4  0  0  0  0
  6  7  4  0  0  0  0
  6 25  1  0  0  0  0
  7  8  4  0  0  0  0
  7 26  1  0  0  0  0
  8  9  4  0  0  0  0
  8 13  4  0  0  0  0
  9 10  4  0  0  0  0
  9 27  1  0  0  0  0
 10 11  4  0  0  0  0
 10 28  1  0  0  0  0
 11 12  4  0  0  0  0
 11 15  1  0  0  0  0
 12 13  4  0  0  0  0
 12 29  1  0  0  0  0
 16 17  2  0  0  0  0
 16 18  1  0  0  0  0
 18 30  1  0  0  0  0
 18 31  1  0  0  0  0
 18 32  1  0  0  0  0
 19 20  1  0  0  0  0
 19 33  1  0  0  0  0
 20 34  1  0  0  0  0
 20 35  1  0  0  0  0
 20 36  1  0  0  0  0
M  END
> <ConfClashScore>
0 

> <ConfOneFourInteractionScore>
-0.931937 

> <ConfScore>
0.558742 

> <ConfScorePBest>
0.0099485 

> <ConfTolerance>
0.640171 

$$$$
5FW.qm
 OpenBabel09182216093D

 36 37  0  0  0  0  0  0  0  0999 V2000
    7.8071   -2.6709    2.7798 C   0  0  0  1  0  0  0  0  0  0  0  0
    6.4536   -3.4522    0.8543 N   0  0  0  1  0  0  0  0  0  0  0  0
    6.8619   -2.2991    1.6426 C   0  0  0  1  0  0  0  0  0  0  0  0
    5.6293   -1.5606    2.1668 C   0  0  0  1  0  0  0  0  0  0  0  0
    4.7476   -2.3536    3.0919 C   0  0  0  1  0  0  0  0  0  0  0  0
    3.8454   -3.3288    2.7367 C   0  0  0  1  0  0  0  0  0  0  0  0
    3.2110   -3.8262    3.8565 N   0  0  0  1  0  0  0  0  0  0  0  0
    3.7161   -3.1909    4.9751 C   0  0  0  1  0  0  0  0  0  0  0  0
    3.4157   -3.3626    6.3298 C   0  0  0  1  0  0  0  0  0  0  0  0
    4.0848   -2.5615    7.2504 C   0  0  0  1  0  0  0  0  0  0  0  0
    5.0297   -1.6260    6.7984 C   0  0  0  1  0  0  0  0  0  0  0  0
    5.3470   -1.4380    5.4666 C   0  0  0  1  0  0  0  0  0  0  0  0
    4.6799   -2.2431    4.5240 C   0  0  0  1  0  0  0  0  0  0  0  0
    7.7616   -3.7796    3.3112 O   0  0  0  1  0  0  0  0  0  0  0  0
    5.6626   -0.8689    7.7151 F   0  0  0  1  0  0  0  0  0  0  0  0
    5.9807   -3.3350   -0.3898 C   0  0  0  1  0  0  0  0  0  0  0  0
    5.8392   -2.2507   -0.9530 O   0  0  0  1  0  0  0  0  0  0  0  0
    5.6212   -4.6347   -1.0830 C   0  0  0  1  0  0  0  0  0  0  0  0
    8.6760   -1.7174    3.1513 N   0  0  0  1  0  0  0  0  0  0  0  0
    9.6982   -1.9479    4.1612 C   0  0  0  1  0  0  0  0  0  0  0  0
    6.5282   -4.3458    1.2497 H   0  0  0  1  0  0  0  0  0  0  0  0
    7.3870   -1.6241    0.9996 H   0  0  0  1  0  0  0  0  0  0  0  0
    5.0404   -1.2621    1.3247 H   0  0  0  1  0  0  0  0  0  0  0  0
    5.9644   -0.6920    2.6942 H   0  0  0  1  0  0  0  0  0  0  0  0
    3.6667   -3.6463    1.7626 H   0  0  0  1  0  0  0  0  0  0  0  0
    2.5159   -4.5171    3.8584 H   0  0  0  1  0  0  0  0  0  0  0  0
    2.7151   -4.0661    6.6395 H   0  0  0  1  0  0  0  0  0  0  0  0
    3.8862   -2.6550    8.2669 H   0  0  0  1  0  0  0  0  0  0  0  0
    6.0502   -0.7304    5.1725 H   0  0  0  1  0  0  0  0  0  0  0  0
    4.9894   -5.2168   -0.4451 H   0  0  0  1  0  0  0  0  0  0  0  0
    6.5144   -5.1835   -1.2969 H   0  0  0  1  0  0  0  0  0  0  0  0
    5.1060   -4.4210   -1.9961 H   0  0  0  1  0  0  0  0  0  0  0  0
    8.6201   -0.8355    2.7277 H   0  0  0  1  0  0  0  0  0  0  0  0
    9.3249   -2.6274    4.8987 H   0  0  0  1  0  0  0  0  0  0  0  0
    9.9533   -1.0197    4.6284 H   0  0  0  1  0  0  0  0  0  0  0  0
   10.5680   -2.3661    3.6990 H   0  0  0  1  0  0  0  0  0  0  0  0
  1  3  1  0  0  0  0
  1 14  2  0  0  0  0
  1 19  1  0  0  0  0
  2  3  1  0  0  0  0
  2 16  1  0  0  0  0
  2 21  1  0  0  0  0
  3  4  1  0  0  0  0
  3 22  1  0  0  0  0
  4  5  1  0  0  0  0
  4 23  1  0  0  0  0
  4 24  1  0  0  0  0
  5  6  4  0  0  0  0
  5 13  4  0  0  0  0
  6  7  4  0  0  0  0
  6 25  1  0  0  0  0
  7  8  4  0  0  0  0
  7 26  1  0  0  0  0
  8  9  4  0  0  0  0
  8 13  4  0  0  0  0
  9 10  4  0  0  0  0
  9 27  1  0  0  0  0
 10 11  4  0  0  0  0
 10 28  1  0  0  0  0
 11 12  4  0  0  0  0
 11 15  1  0  0  0  0
 12 13  4  0  0  0  0
 12 29  1  0  0  0  0
 16 17  2  0  0  0  0
 16 18  1  0  0  0  0
 18 30  1  0  0  0  0
 18 31  1  0  0  0  0
 18 32  1  0  0  0  0
 19 20  1  0  0  0  0
 19 33  1  0  0  0  0
 20 34  1  0  0  0  0
 20 35  1  0  0  0  0
 20 36  1  0  0  0  0
M  END
> <ConfClashScore>
0 

> <ConfOneFourInteractionScore>
-0.980789 

> <ConfScore>
0.560265 

> <ConfScorePBest>
0.0098455 

> <ConfTolerance>
0.417095 

$$$$
5FW.qm
 OpenBabel09182216093D

 36 37  0  0  0  0  0  0  0  0999 V2000
    7.7459   -2.0965    3.4127 C   0  0  0  1  0  0  0  0  0  0  0  0
    6.9489   -3.5678    1.6307 N   0  0  0  1  0  0  0  0  0  0  0  0
    7.0302   -2.1821    2.0679 C   0  0  0  1  0  0  0  0  0  0  0  0
    5.6357   -1.5548    2.1595 C   0  0  0  1  0  0  0  0  0  0  0  0
    4.7469   -2.3542    3.0922 C   0  0  0  1  0  0  0  0  0  0  0  0
    3.8447   -3.3295    2.7373 C   0  0  0  1  0  0  0  0  0  0  0  0
    3.2104   -3.8268    3.8572 N   0  0  0  1  0  0  0  0  0  0  0  0
    3.7157   -3.1913    4.9757 C   0  0  0  1  0  0  0  0  0  0  0  0
    3.4154   -3.3629    6.3304 C   0  0  0  1  0  0  0  0  0  0  0  0
    4.0846   -2.5617    7.2508 C   0  0  0  1  0  0  0  0  0  0  0  0
    5.0294   -1.6262    6.7987 C   0  0  0  1  0  0  0  0  0  0  0  0
    5.3466   -1.4383    5.4668 C   0  0  0  1  0  0  0  0  0  0  0  0
    4.6794   -2.2436    4.5244 C   0  0  0  1  0  0  0  0  0  0  0  0
    7.7111   -3.0354    4.2069 O   0  0  0  1  0  0  0  0  0  0  0  0
    5.6624   -0.8690    7.7152 F   0  0  0  1  0  0  0  0  0  0  0  0
    6.9360   -3.9123    0.3263 C   0  0  0  1  0  0  0  0  0  0  0  0
    7.0929   -3.0688   -0.5555 O   0  0  0  1  0  0  0  0  0  0  0  0
    6.7226   -5.3680   -0.0223 C   0  0  0  1  0  0  0  0  0  0  0  0
    8.4099   -0.9734    3.7005 N   0  0  0  1  0  0  0  0  0  0  0  0
    9.1838   -0.8194    4.9232 C   0  0  0  1  0  0  0  0  0  0  0  0
    6.9020   -4.2752    2.3072 H   0  0  0  1  0  0  0  0  0  0  0  0
    7.5979   -1.6239    1.3531 H   0  0  0  1  0  0  0  0  0  0  0  0
    5.1946   -1.5363    1.1848 H   0  0  0  1  0  0  0  0  0  0  0  0
    5.7243   -0.5551    2.5305 H   0  0  0  1  0  0  0  0  0  0  0  0
    3.6659   -3.6470    1.7632 H   0  0  0  1  0  0  0  0  0  0  0  0
    2.5153   -4.5176    3.8592 H   0  0  0  1  0  0  0  0  0  0  0  0
    2.7148   -4.0663    6.6402 H   0  0  0  1  0  0  0  0  0  0  0  0
    3.8861   -2.6551    8.2674 H   0  0  0  1  0  0  0  0  0  0  0  0
    6.0498   -0.7308    5.1726 H   0  0  0  1  0  0  0  0  0  0  0  0
    7.3603   -5.9775    0.5834 H   0  0  0  1  0  0  0  0  0  0  0  0
    6.9552   -5.5250   -1.0548 H   0  0  0  1  0  0  0  0  0  0  0  0
    5.7014   -5.6317    0.1580 H   0  0  0  1  0  0  0  0  0  0  0  0
    8.3745   -0.2273    3.0661 H   0  0  0  1  0  0  0  0  0  0  0  0
    9.5768   -1.7696    5.2192 H   0  0  0  1  0  0  0  0  0  0  0  0
    8.5530   -0.4375    5.6986 H   0  0  0  1  0  0  0  0  0  0  0  0
    9.9906   -0.1380    4.7510 H   0  0  0  1  0  0  0  0  0  0  0  0
  1  3  1  0  0  0  0
  1 14  2  0  0  0  0
  1 19  1  0  0  0  0
  2  3  1  0  0  0  0
  2 16  1  0  0  0  0
  2 21  1  0  0  0  0
  3  4  1  0  0  0  0
  3 22  1  0  0  0  0
  4  5  1  0  0  0  0
  4 23  1  0  0  0  0
  4 24  1  0  0  0  0
  5  6  4  0  0  0  0
  5 13  4  0  0  0  0
  6  7  4  0  0  0  0
  6 25  1  0  0  0  0
  7  8  4  0  0  0  0
  7 26  1  0  0  0  0
  8  9  4  0  0  0  0
  8 13  4  0  0  0  0
  9 10  4  0  0  0  0
  9 27  1  0  0  0  0
 10 11  4  0  0  0  0
 10 28  1  0  0  0  0
 11 12  4  0  0  0  0
 11 15  1  0  0  0  0
 12 13  4  0  0  0  0
 12 29  1  0  0  0  0
 16 17  2  0  0  0  0
 16 18  1  0  0  0  0
 18 30  1  0  0  0  0
 18 31  1  0  0  0  0
 18 32  1  0  0  0  0
 19 20  1  0  0  0  0
 19 33  1  0  0  0  0
 20 34  1  0  0  0  0
 20 35  1  0  0  0  0
 20 36  1  0  0  0  0
M  END
> <ConfClashScore>
0 

> <ConfOneFourInteractionScore>
-0.980789 

> <ConfScore>
0.560566 

> <ConfScorePBest>
0.0097425 

> <ConfTolerance>
0.373477 

$$$$
5FW.qm
 OpenBabel09182216093D

 36 37  0  0  0  0  0  0  0  0999 V2000
    3.9049   -1.0292    0.3678 C   0  0  0  1  0  0  0  0  0  0  0  0
    4.1876    0.3634    2.4173 N   0  0  0  1  0  0  0  0  0  0  0  0
    4.8545   -0.4694    1.4103 C   0  0  0  1  0  0  0  0  0  0  0  0
    5.6198   -1.5571    2.1704 C   0  0  0  1  0  0  0  0  0  0  0  0
    4.7430   -2.3580    3.0955 C   0  0  0  1  0  0  0  0  0  0  0  0
    3.8458   -3.3232    2.7448 C   0  0  0  1  0  0  0  0  0  0  0  0
    3.2222   -3.8184    3.8613 N   0  0  0  1  0  0  0  0  0  0  0  0
    3.7241   -3.1911    4.9686 C   0  0  0  1  0  0  0  0  0  0  0  0
    3.4215   -3.3552    6.3232 C   0  0  0  1  0  0  0  0  0  0  0  0
    4.0916   -2.5579    7.2254 C   0  0  0  1  0  0  0  0  0  0  0  0
    5.0305   -1.6199    6.8076 C   0  0  0  1  0  0  0  0  0  0  0  0
    5.3340   -1.4612    5.4735 C   0  0  0  1  0  0  0  0  0  0  0  0
    4.6811   -2.2608    4.5291 C   0  0  0  1  0  0  0  0  0  0  0  0
    2.7403   -1.2913    0.6657 O   0  0  0  1  0  0  0  0  0  0  0  0
    5.6532   -0.8537    7.7236 F   0  0  0  1  0  0  0  0  0  0  0  0
    4.7709    1.4044    3.0468 C   0  0  0  1  0  0  0  0  0  0  0  0
    5.9393    1.7130    2.8159 O   0  0  0  1  0  0  0  0  0  0  0  0
    3.9439    2.1854    4.0495 C   0  0  0  1  0  0  0  0  0  0  0  0
    4.4141   -1.3014   -0.8346 N   0  0  0  1  0  0  0  0  0  0  0  0
    3.5817   -1.9140   -1.8591 C   0  0  0  1  0  0  0  0  0  0  0  0
    3.2592    0.1500    2.6474 H   0  0  0  1  0  0  0  0  0  0  0  0
    5.5761    0.1343    0.9006 H   0  0  0  1  0  0  0  0  0  0  0  0
    6.3894   -1.0908    2.7493 H   0  0  0  1  0  0  0  0  0  0  0  0
    6.0619   -2.2229    1.4589 H   0  0  0  1  0  0  0  0  0  0  0  0
    3.6612   -3.6384    1.7710 H   0  0  0  1  0  0  0  0  0  0  0  0
    2.5284   -4.5105    3.8653 H   0  0  0  1  0  0  0  0  0  0  0  0
    2.7172   -4.0526    6.6383 H   0  0  0  1  0  0  0  0  0  0  0  0
    3.8913   -2.6596    8.2408 H   0  0  0  1  0  0  0  0  0  0  0  0
    6.0382   -0.7575    5.1725 H   0  0  0  1  0  0  0  0  0  0  0  0
    3.2115    2.7685    3.5314 H   0  0  0  1  0  0  0  0  0  0  0  0
    4.5836    2.8338    4.6110 H   0  0  0  1  0  0  0  0  0  0  0  0
    3.4531    1.5050    4.7137 H   0  0  0  1  0  0  0  0  0  0  0  0
    5.3508   -1.0883   -1.0285 H   0  0  0  1  0  0  0  0  0  0  0  0
    2.5501   -1.7808   -1.6079 H   0  0  0  1  0  0  0  0  0  0  0  0
    3.8018   -2.9594   -1.9191 H   0  0  0  1  0  0  0  0  0  0  0  0
    3.7810   -1.4522   -2.8035 H   0  0  0  1  0  0  0  0  0  0  0  0
  1  3  1  0  0  0  0
  1 14  2  0  0  0  0
  1 19  1  0  0  0  0
  2  3  1  0  0  0  0
  2 16  1  0  0  0  0
  2 21  1  0  0  0  0
  3  4  1  0  0  0  0
  3 22  1  0  0  0  0
  4  5  1  0  0  0  0
  4 23  1  0  0  0  0
  4 24  1  0  0  0  0
  5  6  4  0  0  0  0
  5 13  4  0  0  0  0
  6  7  4  0  0  0  0
  6 25  1  0  0  0  0
  7  8  4  0  0  0  0
  7 26  1  0  0  0  0
  8  9  4  0  0  0  0
  8 13  4  0  0  0  0
  9 10  4  0  0  0  0
  9 27  1  0  0  0  0
 10 11  4  0  0  0  0
 10 28  1  0  0  0  0
 11 12  4  0  0  0  0
 11 15  1  0  0  0  0
 12 13  4  0  0  0  0
 12 29  1  0  0  0  0
 16 17  2  0  0  0  0
 16 18  1  0  0  0  0
 18 30  1  0  0  0  0
 18 31  1  0  0  0  0
 18 32  1  0  0  0  0
 19 20  1  0  0  0  0
 19 33  1  0  0  0  0
 20 34  1  0  0  0  0
 20 35  1  0  0  0  0
 20 36  1  0  0  0  0
M  END
> <ConfClashScore>
0 

> <ConfOneFourInteractionScore>
-0.980789 

> <ConfScore>
0.560974 

> <ConfScorePBest>
0.0096395 

> <ConfTolerance>
0.467497 

$$$$
5FW.qm
 OpenBabel09182216093D

 36 37  0  0  0  0  0  0  0  0999 V2000
    6.1122    0.6980    1.1372 C   0  0  0  1  0  0  0  0  0  0  0  0
    3.8476    0.1652    1.9337 N   0  0  0  1  0  0  0  0  0  0  0  0
    5.2668   -0.0671    2.1495 C   0  0  0  1  0  0  0  0  0  0  0  0
    5.6198   -1.5571    2.1704 C   0  0  0  1  0  0  0  0  0  0  0  0
    4.7430   -2.3580    3.0955 C   0  0  0  1  0  0  0  0  0  0  0  0
    3.8458   -3.3232    2.7448 C   0  0  0  1  0  0  0  0  0  0  0  0
    3.2222   -3.8184    3.8613 N   0  0  0  1  0  0  0  0  0  0  0  0
    3.7241   -3.1911    4.9686 C   0  0  0  1  0  0  0  0  0  0  0  0
    3.4215   -3.3552    6.3232 C   0  0  0  1  0  0  0  0  0  0  0  0
    4.0916   -2.5579    7.2254 C   0  0  0  1  0  0  0  0  0  0  0  0
    5.0305   -1.6199    6.8076 C   0  0  0  1  0  0  0  0  0  0  0  0
    5.3340   -1.4612    5.4735 C   0  0  0  1  0  0  0  0  0  0  0  0
    4.6811   -2.2608    4.5291 C   0  0  0  1  0  0  0  0  0  0  0  0
    5.6514    1.0620    0.0561 O   0  0  0  1  0  0  0  0  0  0  0  0
    5.6532   -0.8537    7.7236 F   0  0  0  1  0  0  0  0  0  0  0  0
    3.0833    0.7699    2.9200 C   0  0  0  1  0  0  0  0  0  0  0  0
    3.5979    0.9924    4.0008 O   0  0  0  1  0  0  0  0  0  0  0  0
    1.6544    1.1269    2.6206 C   0  0  0  1  0  0  0  0  0  0  0  0
    7.3656    0.9202    1.5431 N   0  0  0  1  0  0  0  0  0  0  0  0
    8.3441    1.6005    0.7079 C   0  0  0  1  0  0  0  0  0  0  0  0
    3.4306   -0.1061    1.0894 H   0  0  0  1  0  0  0  0  0  0  0  0
    5.5151    0.3211    3.1152 H   0  0  0  1  0  0  0  0  0  0  0  0
    6.6360   -1.6619    2.4886 H   0  0  0  1  0  0  0  0  0  0  0  0
    5.5140   -1.9461    1.1792 H   0  0  0  1  0  0  0  0  0  0  0  0
    3.6612   -3.6384    1.7710 H   0  0  0  1  0  0  0  0  0  0  0  0
    2.5284   -4.5105    3.8653 H   0  0  0  1  0  0  0  0  0  0  0  0
    2.7172   -4.0526    6.6383 H   0  0  0  1  0  0  0  0  0  0  0  0
    3.8913   -2.6596    8.2408 H   0  0  0  1  0  0  0  0  0  0  0  0
    6.0382   -0.7575    5.1725 H   0  0  0  1  0  0  0  0  0  0  0  0
    1.3149    1.8599    3.3223 H   0  0  0  1  0  0  0  0  0  0  0  0
    1.0447    0.2510    2.6970 H   0  0  0  1  0  0  0  0  0  0  0  0
    1.5865    1.5241    1.6294 H   0  0  0  1  0  0  0  0  0  0  0  0
    7.6353    0.6144    2.4342 H   0  0  0  1  0  0  0  0  0  0  0  0
    8.0342    2.6118    0.5462 H   0  0  0  1  0  0  0  0  0  0  0  0
    8.4215    1.0967   -0.2329 H   0  0  0  1  0  0  0  0  0  0  0  0
    9.2961    1.5933    1.1964 H   0  0  0  1  0  0  0  0  0  0  0  0
  1  3  1  0  0  0  0
  1 14  2  0  0  0  0
  1 19  1  0  0  0  0
  2  3  1  0  0  0  0
  2 16  1  0  0  0  0
  2 21  1  0  0  0  0
  3  4  1  0  0  0  0
  3 22  1  0  0  0  0
  4  5  1  0  0  0  0
  4 23  1  0  0  0  0
  4 24  1  0  0  0  0
  5  6  4  0  0  0  0
  5 13  4  0  0  0  0
  6  7  4  0  0  0  0
  6 25  1  0  0  0  0
  7  8  4  0  0  0  0
  7 26  1  0  0  0  0
  8  9  4  0  0  0  0
  8 13  4  0  0  0  0
  9 10  4  0  0  0  0
  9 27  1  0  0  0  0
 10 11  4  0  0  0  0
 10 28  1  0  0  0  0
 11 12  4  0  0  0  0
 11 15  1  0  0  0  0
 12 13  4  0  0  0  0
 12 29  1  0  0  0  0
 16 17  2  0  0  0  0
 16 18  1  0  0  0  0
 18 30  1  0  0  0  0
 18 31  1  0  0  0  0
 18 32  1  0  0  0  0
 19 20  1  0  0  0  0
 19 33  1  0  0  0  0
 20 34  1  0  0  0  0
 20 35  1  0  0  0  0
 20 36  1  0  0  0  0
M  END
> <ConfClashScore>
0 

> <ConfOneFourInteractionScore>
-0.992391 

> <ConfScore>
0.563954 

> <ConfScorePBest>
0.0095365 

> <ConfTolerance>
0.486117 

$$$$
5FW.qm
 OpenBabel09182216093D

 36 37  0  0  0  0  0  0  0  0999 V2000
    6.0955   -0.9336   -0.2786 C   0  0  0  1  0  0  0  0  0  0  0  0
    5.7024   -3.2597    0.3427 N   0  0  0  1  0  0  0  0  0  0  0  0
    5.3809   -1.8727    0.6897 C   0  0  0  1  0  0  0  0  0  0  0  0
    5.6215   -1.5556    2.1684 C   0  0  0  1  0  0  0  0  0  0  0  0
    4.7428   -2.3581    3.0956 C   0  0  0  1  0  0  0  0  0  0  0  0
    3.8456   -3.3234    2.7449 C   0  0  0  1  0  0  0  0  0  0  0  0
    3.2220   -3.8185    3.8615 N   0  0  0  1  0  0  0  0  0  0  0  0
    3.7239   -3.1912    4.9688 C   0  0  0  1  0  0  0  0  0  0  0  0
    3.4214   -3.3553    6.3234 C   0  0  0  1  0  0  0  0  0  0  0  0
    4.0916   -2.5580    7.2255 C   0  0  0  1  0  0  0  0  0  0  0  0
    5.0304   -1.6199    6.8077 C   0  0  0  1  0  0  0  0  0  0  0  0
    5.3339   -1.4613    5.4735 C   0  0  0  1  0  0  0  0  0  0  0  0
    4.6809   -2.2609    4.5292 C   0  0  0  1  0  0  0  0  0  0  0  0
    7.2266   -1.1454   -0.6764 O   0  0  0  1  0  0  0  0  0  0  0  0
    5.6532   -0.8537    7.7237 F   0  0  0  1  0  0  0  0  0  0  0  0
    5.3765   -3.7982   -0.8507 C   0  0  0  1  0  0  0  0  0  0  0  0
    4.7517   -3.1516   -1.6904 O   0  0  0  1  0  0  0  0  0  0  0  0
    5.8030   -5.2265   -1.1285 C   0  0  0  1  0  0  0  0  0  0  0  0
    5.4618    0.1613   -0.7080 N   0  0  0  1  0  0  0  0  0  0  0  0
    6.0580    1.0786   -1.6676 C   0  0  0  1  0  0  0  0  0  0  0  0
    6.1705   -3.8154    1.0004 H   0  0  0  1  0  0  0  0  0  0  0  0
    4.3326   -1.7409    0.5201 H   0  0  0  1  0  0  0  0  0  0  0  0
    5.4269   -0.5159    2.3298 H   0  0  0  1  0  0  0  0  0  0  0  0
    6.6444   -1.7676    2.4001 H   0  0  0  1  0  0  0  0  0  0  0  0
    3.6609   -3.6386    1.7712 H   0  0  0  1  0  0  0  0  0  0  0  0
    2.5282   -4.5106    3.8656 H   0  0  0  1  0  0  0  0  0  0  0  0
    2.7171   -4.0526    6.6385 H   0  0  0  1  0  0  0  0  0  0  0  0
    3.8913   -2.6596    8.2410 H   0  0  0  1  0  0  0  0  0  0  0  0
    6.0380   -0.7576    5.1726 H   0  0  0  1  0  0  0  0  0  0  0  0
    5.5336   -5.8474   -0.2998 H   0  0  0  1  0  0  0  0  0  0  0  0
    6.8631   -5.2609   -1.2698 H   0  0  0  1  0  0  0  0  0  0  0  0
    5.3134   -5.5792   -2.0121 H   0  0  0  1  0  0  0  0  0  0  0  0
    4.5641    0.3535   -0.3648 H   0  0  0  1  0  0  0  0  0  0  0  0
    6.8176    0.5699   -2.2236 H   0  0  0  1  0  0  0  0  0  0  0  0
    6.4916    1.9068   -1.1471 H   0  0  0  1  0  0  0  0  0  0  0  0
    5.3032    1.4336   -2.3378 H   0  0  0  1  0  0  0  0  0  0  0  0
  1  3  1  0  0  0  0
  1 14  2  0  0  0  0
  1 19  1  0  0  0  0
  2  3  1  0  0  0  0
  2 16  1  0  0  0  0
  2 21  1  0  0  0  0
  3  4  1  0  0  0  0
  3 22  1  0  0  0  0
  4  5  1  0  0  0  0
  4 23  1  0  0  0  0
  4 24  1  0  0  0  0
  5  6  4  0  0  0  0
  5 13  4  0  0  0  0
  6  7  4  0  0  0  0
  6 25  1  0  0  0  0
  7  8  4  0  0  0  0
  7 26  1  0  0  0  0
  8  9  4  0  0  0  0
  8 13  4  0  0  0  0
  9 10  4  0  0  0  0
  9 27  1  0  0  0  0
 10 11  4  0  0  0  0
 10 28  1  0  0  0  0
 11 12  4  0  0  0  0
 11 15  1  0  0  0  0
 12 13  4  0  0  0  0
 12 29  1  0  0  0  0
 16 17  2  0  0  0  0
 16 18  1  0  0  0  0
 18 30  1  0  0  0  0
 18 31  1  0  0  0  0
 18 32  1  0  0  0  0
 19 20  1  0  0  0  0
 19 33  1  0  0  0  0
 20 34  1  0  0  0  0
 20 35  1  0  0  0  0
 20 36  1  0  0  0  0
M  END
> <ConfClashScore>
0 

> <ConfOneFourInteractionScore>
-0.97449 

> <ConfScore>
0.564089 

> <ConfScorePBest>
0.00943349 

> <ConfTolerance>
0.447974 

$$$$
5FW.qm
 OpenBabel09182216093D

 36 37  0  0  0  0  0  0  0  0999 V2000
    6.9430   -3.5215    1.3755 C   0  0  0  1  0  0  0  0  0  0  0  0
    7.8621   -1.2705    1.2162 N   0  0  0  1  0  0  0  0  0  0  0  0
    7.0150   -2.1469    2.0114 C   0  0  0  1  0  0  0  0  0  0  0  0
    5.6198   -1.5571    2.1704 C   0  0  0  1  0  0  0  0  0  0  0  0
    4.7430   -2.3580    3.0955 C   0  0  0  1  0  0  0  0  0  0  0  0
    3.8458   -3.3232    2.7448 C   0  0  0  1  0  0  0  0  0  0  0  0
    3.2222   -3.8184    3.8613 N   0  0  0  1  0  0  0  0  0  0  0  0
    3.7241   -3.1911    4.9686 C   0  0  0  1  0  0  0  0  0  0  0  0
    3.4215   -3.3552    6.3232 C   0  0  0  1  0  0  0  0  0  0  0  0
    4.0916   -2.5579    7.2254 C   0  0  0  1  0  0  0  0  0  0  0  0
    5.0305   -1.6199    6.8076 C   0  0  0  1  0  0  0  0  0  0  0  0
    5.3340   -1.4612    5.4735 C   0  0  0  1  0  0  0  0  0  0  0  0
    4.6811   -2.2608    4.5291 C   0  0  0  1  0  0  0  0  0  0  0  0
    6.2783   -3.7210    0.3606 O   0  0  0  1  0  0  0  0  0  0  0  0
    5.6532   -0.8537    7.7236 F   0  0  0  1  0  0  0  0  0  0  0  0
    9.0151   -0.7796    1.6793 C   0  0  0  1  0  0  0  0  0  0  0  0
    9.4259   -0.9969    2.8162 O   0  0  0  1  0  0  0  0  0  0  0  0
    9.8078    0.0803    0.7032 C   0  0  0  1  0  0  0  0  0  0  0  0
    7.6420   -4.4816    1.9877 N   0  0  0  1  0  0  0  0  0  0  0  0
    7.7822   -5.7912    1.3686 C   0  0  0  1  0  0  0  0  0  0  0  0
    7.5768   -1.0322    0.3094 H   0  0  0  1  0  0  0  0  0  0  0  0
    7.4434   -2.2528    2.9861 H   0  0  0  1  0  0  0  0  0  0  0  0
    5.1543   -1.5194    1.2077 H   0  0  0  1  0  0  0  0  0  0  0  0
    5.7118   -0.5655    2.5618 H   0  0  0  1  0  0  0  0  0  0  0  0
    3.6612   -3.6384    1.7710 H   0  0  0  1  0  0  0  0  0  0  0  0
    2.5284   -4.5105    3.8653 H   0  0  0  1  0  0  0  0  0  0  0  0
    2.7172   -4.0526    6.6383 H   0  0  0  1  0  0  0  0  0  0  0  0
    3.8913   -2.6596    8.2408 H   0  0  0  1  0  0  0  0  0  0  0  0
    6.0382   -0.7575    5.1725 H   0  0  0  1  0  0  0  0  0  0  0  0
    9.1450    0.4950   -0.0272 H   0  0  0  1  0  0  0  0  0  0  0  0
   10.5447   -0.5223    0.2146 H   0  0  0  1  0  0  0  0  0  0  0  0
   10.2906    0.8722    1.2368 H   0  0  0  1  0  0  0  0  0  0  0  0
    8.0610   -4.3036    2.8555 H   0  0  0  1  0  0  0  0  0  0  0  0
    7.6115   -5.7085    0.3155 H   0  0  0  1  0  0  0  0  0  0  0  0
    7.0677   -6.4647    1.7937 H   0  0  0  1  0  0  0  0  0  0  0  0
    8.7705   -6.1631    1.5414 H   0  0  0  1  0  0  0  0  0  0  0  0
  1  3  1  0  0  0  0
  1 14  2  0  0  0  0
  1 19  1  0  0  0  0
  2  3  1  0  0  0  0
  2 16  1  0  0  0  0
  2 21  1  0  0  0  0
  3  4  1  0  0  0  0
  3 22  1  0  0  0  0
  4  5  1  0  0  0  0
  4 23  1  0  0  0  0
  4 24  1  0  0  0  0
  5  6  4  0  0  0  0
  5 13  4  0  0  0  0
  6  7  4  0  0  0  0
  6 25  1  0  0  0  0
  7  8  4  0  0  0  0
  7 26  1  0  0  0  0
  8  9  4  0  0  0  0
  8 13  4  0  0  0  0
  9 10  4  0  0  0  0
  9 27  1  0  0  0  0
 10 11  4  0  0  0  0
 10 28  1  0  0  0  0
 11 12  4  0  0  0  0
 11 15  1  0  0  0  0
 12 13  4  0  0  0  0
 12 29  1  0  0  0  0
 16 17  2  0  0  0  0
 16 18  1  0  0  0  0
 18 30  1  0  0  0  0
 18 31  1  0  0  0  0
 18 32  1  0  0  0  0
 19 20  1  0  0  0  0
 19 33  1  0  0  0  0
 20 34  1  0  0  0  0
 20 35  1  0  0  0  0
 20 36  1  0  0  0  0
M  END
> <ConfClashScore>
0 

> <ConfOneFourInteractionScore>
-0.971454 

> <ConfScore>
0.564249 

> <ConfScorePBest>
0.00933049 

> <ConfTolerance>
0.349813 

$$$$
5FW.qm
 OpenBabel09182216093D

 36 37  0  0  0  0  0  0  0  0999 V2000
    4.7550    0.5926    3.1240 C   0  0  0  1  0  0  0  0  0  0  0  0
    5.9946    0.5857    1.0172 N   0  0  0  1  0  0  0  0  0  0  0  0
    5.0659   -0.1732    1.8415 C   0  0  0  1  0  0  0  0  0  0  0  0
    5.6300   -1.5599    2.1660 C   0  0  0  1  0  0  0  0  0  0  0  0
    4.7475   -2.3536    3.0919 C   0  0  0  1  0  0  0  0  0  0  0  0
    3.8453   -3.3289    2.7368 C   0  0  0  1  0  0  0  0  0  0  0  0
    3.2109   -3.8263    3.8566 N   0  0  0  1  0  0  0  0  0  0  0  0
    3.7161   -3.1909    4.9752 C   0  0  0  1  0  0  0  0  0  0  0  0
    3.4156   -3.3627    6.3299 C   0  0  0  1  0  0  0  0  0  0  0  0
    4.0847   -2.5615    7.2504 C   0  0  0  1  0  0  0  0  0  0  0  0
    5.0297   -1.6260    6.7984 C   0  0  0  1  0  0  0  0  0  0  0  0
    5.3470   -1.4380    5.4666 C   0  0  0  1  0  0  0  0  0  0  0  0
    4.6798   -2.2432    4.5241 C   0  0  0  1  0  0  0  0  0  0  0  0
    5.5666    0.8243    4.0010 O   0  0  0  1  0  0  0  0  0  0  0  0
    5.6626   -0.8689    7.7151 F   0  0  0  1  0  0  0  0  0  0  0  0
    5.5666    1.1854   -0.0973 C   0  0  0  1  0  0  0  0  0  0  0  0
    4.3814    1.2222   -0.4254 O   0  0  0  1  0  0  0  0  0  0  0  0
    6.6401    1.8304   -0.9522 C   0  0  0  1  0  0  0  0  0  0  0  0
    3.4851    0.9991    3.2084 N   0  0  0  1  0  0  0  0  0  0  0  0
    2.9645    1.6844    4.3820 C   0  0  0  1  0  0  0  0  0  0  0  0
    6.9360    0.6569    1.2802 H   0  0  0  1  0  0  0  0  0  0  0  0
    4.1506   -0.3058    1.3034 H   0  0  0  1  0  0  0  0  0  0  0  0
    6.5871   -1.4385    2.6287 H   0  0  0  1  0  0  0  0  0  0  0  0
    5.7417   -2.1046    1.2518 H   0  0  0  1  0  0  0  0  0  0  0  0
    3.6666   -3.6464    1.7627 H   0  0  0  1  0  0  0  0  0  0  0  0
    2.5158   -4.5171    3.8585 H   0  0  0  1  0  0  0  0  0  0  0  0
    2.7150   -4.0661    6.6395 H   0  0  0  1  0  0  0  0  0  0  0  0
    3.8862   -2.6550    8.2670 H   0  0  0  1  0  0  0  0  0  0  0  0
    6.0502   -0.7304    5.1725 H   0  0  0  1  0  0  0  0  0  0  0  0
    6.4498    2.8802   -1.0325 H   0  0  0  1  0  0  0  0  0  0  0  0
    6.6308    1.3907   -1.9276 H   0  0  0  1  0  0  0  0  0  0  0  0
    7.5972    1.6752   -0.4995 H   0  0  0  1  0  0  0  0  0  0  0  0
    2.8832    0.8298    2.4538 H   0  0  0  1  0  0  0  0  0  0  0  0
    3.6887    2.3887    4.7348 H   0  0  0  1  0  0  0  0  0  0  0  0
    2.7592    0.9690    5.1507 H   0  0  0  1  0  0  0  0  0  0  0  0
    2.0630    2.1994    4.1234 H   0  0  0  1  0  0  0  0  0  0  0  0
  1  3  1  0  0  0  0
  1 14  2  0  0  0  0
  1 19  1  0  0  0  0
  2  3  1  0  0  0  0
  2 16  1  0  0  0  0
  2 21  1  0  0  0  0
  3  4  1  0  0  0  0
  3 22  1  0  0  0  0
  4  5  1  0  0  0  0
  4 23  1  0  0  0  0
  4 24  1  0  0  0  0
  5  6  4  0  0  0  0
  5 13  4  0  0  0  0
  6  7  4  0  0  0  0
  6 25  1  0  0  0  0
  7  8  4  0  0  0  0
  7 26  1  0  0  0  0
  8  9  4  0  0  0  0
  8 13  4  0  0  0  0
  9 10  4  0  0  0  0
  9 27  1  0  0  0  0
 10 11  4  0  0  0  0
 10 28  1  0  0  0  0
 11 12  4  0  0  0  0
 11 15  1  0  0  0  0
 12 13  4  0  0  0  0
 12 29  1  0  0  0  0
 16 17  2  0  0  0  0
 16 18  1  0  0  0  0
 18 30  1  0  0  0  0
 18 31  1  0  0  0  0
 18 32  1  0  0  0  0
 19 20  1  0  0  0  0
 19 33  1  0  0  0  0
 20 34  1  0  0  0  0
 20 35  1  0  0  0  0
 20 36  1  0  0  0  0
M  END
> <ConfClashScore>
0 

> <ConfOneFourInteractionScore>
-0.975259 

> <ConfScore>
0.578951 

> <ConfScorePBest>
0.00922749 

> <ConfTolerance>
0.361796 

$$$$
5FW.qm
 OpenBabel09182216093D

 36 37  0  0  0  0  0  0  0  0999 V2000
    5.8152    0.1129    0.3582 C   0  0  0  1  0  0  0  0  0  0  0  0
    4.2952   -1.7581    0.1154 N   0  0  0  1  0  0  0  0  0  0  0  0
    4.8506   -0.8244    1.0837 C   0  0  0  1  0  0  0  0  0  0  0  0
    5.6300   -1.5599    2.1660 C   0  0  0  1  0  0  0  0  0  0  0  0
    4.7475   -2.3536    3.0919 C   0  0  0  1  0  0  0  0  0  0  0  0
    3.8453   -3.3289    2.7368 C   0  0  0  1  0  0  0  0  0  0  0  0
    3.2109   -3.8263    3.8566 N   0  0  0  1  0  0  0  0  0  0  0  0
    3.7161   -3.1909    4.9752 C   0  0  0  1  0  0  0  0  0  0  0  0
    3.4156   -3.3627    6.3299 C   0  0  0  1  0  0  0  0  0  0  0  0
    4.0847   -2.5615    7.2504 C   0  0  0  1  0  0  0  0  0  0  0  0
    5.0297   -1.6260    6.7984 C   0  0  0  1  0  0  0  0  0  0  0  0
    5.3470   -1.4380    5.4666 C   0  0  0  1  0  0  0  0  0  0  0  0
    4.6798   -2.2432    4.5241 C   0  0  0  1  0  0  0  0  0  0  0  0
    6.8882   -0.3499   -0.0265 O   0  0  0  1  0  0  0  0  0  0  0  0
    5.6626   -0.8689    7.7151 F   0  0  0  1  0  0  0  0  0  0  0  0
    3.0094   -1.6975   -0.2887 C   0  0  0  1  0  0  0  0  0  0  0  0
    2.2333   -0.8678    0.1834 O   0  0  0  1  0  0  0  0  0  0  0  0
    2.5479   -2.6803   -1.3408 C   0  0  0  1  0  0  0  0  0  0  0  0
    5.4461    1.3795    0.1799 N   0  0  0  1  0  0  0  0  0  0  0  0
    6.3573    2.3892   -0.3379 C   0  0  0  1  0  0  0  0  0  0  0  0
    4.8753   -2.4552   -0.2560 H   0  0  0  1  0  0  0  0  0  0  0  0
    4.0707   -0.2498    1.5380 H   0  0  0  1  0  0  0  0  0  0  0  0
    6.1710   -0.8406    2.7446 H   0  0  0  1  0  0  0  0  0  0  0  0
    6.3185   -2.2296    1.6944 H   0  0  0  1  0  0  0  0  0  0  0  0
    3.6666   -3.6464    1.7627 H   0  0  0  1  0  0  0  0  0  0  0  0
    2.5158   -4.5171    3.8585 H   0  0  0  1  0  0  0  0  0  0  0  0
    2.7150   -4.0661    6.6395 H   0  0  0  1  0  0  0  0  0  0  0  0
    3.8862   -2.6550    8.2670 H   0  0  0  1  0  0  0  0  0  0  0  0
    6.0502   -0.7304    5.1725 H   0  0  0  1  0  0  0  0  0  0  0  0
    2.7571   -2.2868   -2.3136 H   0  0  0  1  0  0  0  0  0  0  0  0
    1.4949   -2.8415   -1.2405 H   0  0  0  1  0  0  0  0  0  0  0  0
    3.0650   -3.6083   -1.2130 H   0  0  0  1  0  0  0  0  0  0  0  0
    4.5289    1.6411    0.4052 H   0  0  0  1  0  0  0  0  0  0  0  0
    7.3254    2.2536    0.0972 H   0  0  0  1  0  0  0  0  0  0  0  0
    5.9885    3.3627   -0.0904 H   0  0  0  1  0  0  0  0  0  0  0  0
    6.4280    2.2938   -1.4013 H   0  0  0  1  0  0  0  0  0  0  0  0
  1  3  1  0  0  0  0
  1 14  2  0  0  0  0
  1 19  1  0  0  0  0
  2  3  1  0  0  0  0
  2 16  1  0  0  0  0
  2 21  1  0  0  0  0
  3  4  1  0  0  0  0
  3 22  1  0  0  0  0
  4  5  1  0  0  0  0
  4 23  1  0  0  0  0
  4 24  1  0  0  0  0
  5  6  4  0  0  0  0
  5 13  4  0  0  0  0
  6  7  4  0  0  0  0
  6 25  1  0  0  0  0
  7  8  4  0  0  0  0
  7 26  1  0  0  0  0
  8  9  4  0  0  0  0
  8 13  4  0  0  0  0
  9 10  4  0  0  0  0
  9 27  1  0  0  0  0
 10 11  4  0  0  0  0
 10 28  1  0  0  0  0
 11 12  4  0  0  0  0
 11 15  1  0  0  0  0
 12 13  4  0  0  0  0
 12 29  1  0  0  0  0
 16 17  2  0  0  0  0
 16 18  1  0  0  0  0
 18 30  1  0  0  0  0
 18 31  1  0  0  0  0
 18 32  1  0  0  0  0
 19 20  1  0  0  0  0
 19 33  1  0  0  0  0
 20 34  1  0  0  0  0
 20 35  1  0  0  0  0
 20 36  1  0  0  0  0
M  END
> <ConfClashScore>
0 

> <ConfOneFourInteractionScore>
-0.975259 

> <ConfScore>
0.581218 

> <ConfScorePBest>
0.00912449 

> <ConfTolerance>
0.591568 

$$$$
5FW.qm
 OpenBabel09182216093D

 36 37  0  0  0  0  0  0  0  0999 V2000
    6.5934   -1.3866   -0.2111 C   0  0  0  1  0  0  0  0  0  0  0  0
    6.0356   -3.5602    0.7905 N   0  0  0  1  0  0  0  0  0  0  0  0
    5.6745   -2.1295    0.7447 C   0  0  0  1  0  0  0  0  0  0  0  0
    5.6300   -1.5599    2.1660 C   0  0  0  1  0  0  0  0  0  0  0  0
    4.7475   -2.3536    3.0919 C   0  0  0  1  0  0  0  0  0  0  0  0
    3.8453   -3.3289    2.7368 C   0  0  0  1  0  0  0  0  0  0  0  0
    3.2109   -3.8263    3.8566 N   0  0  0  1  0  0  0  0  0  0  0  0
    3.7161   -3.1909    4.9752 C   0  0  0  1  0  0  0  0  0  0  0  0
    3.4156   -3.3627    6.3299 C   0  0  0  1  0  0  0  0  0  0  0  0
    4.0847   -2.5615    7.2504 C   0  0  0  1  0  0  0  0  0  0  0  0
    5.0297   -1.6260    6.7984 C   0  0  0  1  0  0  0  0  0  0  0  0
    5.3470   -1.4380    5.4666 C   0  0  0  1  0  0  0  0  0  0  0  0
    4.6798   -2.2432    4.5241 C   0  0  0  1  0  0  0  0  0  0  0  0
    7.8041   -1.3314   -0.0983 O   0  0  0  1  0  0  0  0  0  0  0  0
    5.6626   -0.8689    7.7151 F   0  0  0  1  0  0  0  0  0  0  0  0
    5.2154   -4.5433    0.2798 C   0  0  0  1  0  0  0  0  0  0  0  0
    4.1529   -4.2459   -0.2325 O   0  0  0  1  0  0  0  0  0  0  0  0
    5.7223   -5.9505    0.4039 C   0  0  0  1  0  0  0  0  0  0  0  0
    5.9467   -0.7827   -1.2122 N   0  0  0  1  0  0  0  0  0  0  0  0
    6.6349    0.0300   -2.2040 C   0  0  0  1  0  0  0  0  0  0  0  0
    6.8880   -3.8200    1.1982 H   0  0  0  1  0  0  0  0  0  0  0  0
    4.6833   -2.0578    0.3481 H   0  0  0  1  0  0  0  0  0  0  0  0
    5.2601   -0.5570    2.1196 H   0  0  0  1  0  0  0  0  0  0  0  0
    6.6237   -1.5562    2.5627 H   0  0  0  1  0  0  0  0  0  0  0  0
    3.6666   -3.6464    1.7627 H   0  0  0  1  0  0  0  0  0  0  0  0
    2.5158   -4.5171    3.8585 H   0  0  0  1  0  0  0  0  0  0  0  0
    2.7150   -4.0661    6.6395 H   0  0  0  1  0  0  0  0  0  0  0  0
    3.8862   -2.6550    8.2670 H   0  0  0  1  0  0  0  0  0  0  0  0
    6.0502   -0.7304    5.1725 H   0  0  0  1  0  0  0  0  0  0  0  0
    5.9767   -6.1499    1.4240 H   0  0  0  1  0  0  0  0  0  0  0  0
    6.5900   -6.0723   -0.2101 H   0  0  0  1  0  0  0  0  0  0  0  0
    4.9615   -6.6327    0.0865 H   0  0  0  1  0  0  0  0  0  0  0  0
    4.9751   -0.8908   -1.2810 H   0  0  0  1  0  0  0  0  0  0  0  0
    6.1124   -0.0255   -3.1361 H   0  0  0  1  0  0  0  0  0  0  0  0
    7.6329   -0.3338   -2.3327 H   0  0  0  1  0  0  0  0  0  0  0  0
    6.6654    1.0469   -1.8726 H   0  0  0  1  0  0  0  0  0  0  0  0
  1  3  1  0  0  0  0
  1 14  2  0  0  0  0
  1 19  1  0  0  0  0
  2  3  1  0  0  0  0
  2 16  1  0  0  0  0
  2 21  1  0  0  0  0
  3  4  1  0  0  0  0
  3 22  1  0  0  0  0
  4  5  1  0  0  0  0
  4 23  1  0  0  0  0
  4 24  1  0  0  0  0
  5  6  4  0  0  0  0
  5 13  4  0  0  0  0
  6  7  4  0  0  0  0
  6 25  1  0  0  0  0
  7  8  4  0  0  0  0
  7 26  1  0  0  0  0
  8  9  4  0  0  0  0
  8 13  4  0  0  0  0
  9 10  4  0  0  0  0
  9 27  1  0  0  0  0
 10 11  4  0  0  0  0
 10 28  1  0  0  0  0
 11 12  4  0  0  0  0
 11 15  1  0  0  0  0
 12 13  4  0  0  0  0
 12 29  1  0  0  0  0
 16 17  2  0  0  0  0
 16 18  1  0  0  0  0
 18 30  1  0  0  0  0
 18 31  1  0  0  0  0
 18 32  1  0  0  0  0
 19 20  1  0  0  0  0
 19 33  1  0  0  0  0
 20 34  1  0  0  0  0
 20 35  1  0  0  0  0
 20 36  1  0  0  0  0
M  END
> <ConfClashScore>
0 

> <ConfOneFourInteractionScore>
-0.96681 

> <ConfScore>
0.583853 

> <ConfScorePBest>
0.00902149 

> <ConfTolerance>
0.840112 

$$$$
5FW.qm
 OpenBabel09182216093D

 36 37  0  0  0  0  0  0  0  0999 V2000
    4.9389    0.7570    3.0580 C   0  0  0  1  0  0  0  0  0  0  0  0
    6.0043    0.4968    0.8458 N   0  0  0  1  0  0  0  0  0  0  0  0
    5.1337   -0.1442    1.8541 C   0  0  0  1  0  0  0  0  0  0  0  0
    5.6255   -1.5520    2.1639 C   0  0  0  1  0  0  0  0  0  0  0  0
    4.7424   -2.3585    3.0958 C   0  0  0  1  0  0  0  0  0  0  0  0
    3.8452   -3.3238    2.7453 C   0  0  0  1  0  0  0  0  0  0  0  0
    3.2217   -3.8188    3.8619 N   0  0  0  1  0  0  0  0  0  0  0  0
    3.7237   -3.1914    4.9692 C   0  0  0  1  0  0  0  0  0  0  0  0
    3.4212   -3.3554    6.3238 C   0  0  0  1  0  0  0  0  0  0  0  0
    4.0915   -2.5581    7.2258 C   0  0  0  1  0  0  0  0  0  0  0  0
    5.0302   -1.6201    6.8079 C   0  0  0  1  0  0  0  0  0  0  0  0
    5.3337   -1.4616    5.4737 C   0  0  0  1  0  0  0  0  0  0  0  0
    4.6806   -2.2612    4.5295 C   0  0  0  1  0  0  0  0  0  0  0  0
    5.8270    1.5166    3.4358 O   0  0  0  1  0  0  0  0  0  0  0  0
    5.6531   -0.8538    7.7237 F   0  0  0  1  0  0  0  0  0  0  0  0
    5.7280    1.6945    0.3223 C   0  0  0  1  0  0  0  0  0  0  0  0
    4.7023    2.3205    0.5861 O   0  0  0  1  0  0  0  0  0  0  0  0
    6.7661    2.2514   -0.6325 C   0  0  0  1  0  0  0  0  0  0  0  0
    3.7527    0.6653    3.6658 N   0  0  0  1  0  0  0  0  0  0  0  0
    3.3792    1.5289    4.7760 C   0  0  0  1  0  0  0  0  0  0  0  0
    6.8122    0.0268    0.5512 H   0  0  0  1  0  0  0  0  0  0  0  0
    4.1698   -0.2561    1.4031 H   0  0  0  1  0  0  0  0  0  0  0  0
    6.5933   -1.4721    2.6131 H   0  0  0  1  0  0  0  0  0  0  0  0
    5.7036   -2.0852    1.2395 H   0  0  0  1  0  0  0  0  0  0  0  0
    3.6604   -3.6391    1.7716 H   0  0  0  1  0  0  0  0  0  0  0  0
    2.5278   -4.5109    3.8661 H   0  0  0  1  0  0  0  0  0  0  0  0
    2.7170   -4.0528    6.6390 H   0  0  0  1  0  0  0  0  0  0  0  0
    3.8912   -2.6596    8.2413 H   0  0  0  1  0  0  0  0  0  0  0  0
    6.0378   -0.7579    5.1726 H   0  0  0  1  0  0  0  0  0  0  0  0
    7.7426    1.9549   -0.3110 H   0  0  0  1  0  0  0  0  0  0  0  0
    6.7035    3.3195   -0.6436 H   0  0  0  1  0  0  0  0  0  0  0  0
    6.5846    1.8728   -1.6167 H   0  0  0  1  0  0  0  0  0  0  0  0
    3.1117   -0.0069    3.3531 H   0  0  0  1  0  0  0  0  0  0  0  0
    3.3707    2.5477    4.4489 H   0  0  0  1  0  0  0  0  0  0  0  0
    4.0876    1.4153    5.5698 H   0  0  0  1  0  0  0  0  0  0  0  0
    2.4047    1.2587    5.1256 H   0  0  0  1  0  0  0  0  0  0  0  0
  1  3  1  0  0  0  0
  1 14  2  0  0  0  0
  1 19  1  0  0  0  0
  2  3  1  0  0  0  0
  2 16  1  0  0  0  0
  2 21  1  0  0  0  0
  3  4  1  0  0  0  0
  3 22  1  0  0  0  0
  4  5  1  0  0  0  0
  4 23  1  0  0  0  0
  4 24  1  0  0  0  0
  5  6  4  0  0  0  0
  5 13  4  0  0  0  0
  6  7  4  0  0  0  0
  6 25  1  0  0  0  0
  7  8  4  0  0  0  0
  7 26  1  0  0  0  0
  8  9  4  0  0  0  0
  8 13  4  0  0  0  0
  9 10  4  0  0  0  0
  9 27  1  0  0  0  0
 10 11  4  0  0  0  0
 10 28  1  0  0  0  0
 11 12  4  0  0  0  0
 11 15  1  0  0  0  0
 12 13  4  0  0  0  0
 12 29  1  0  0  0  0
 16 17  2  0  0  0  0
 16 18  1  0  0  0  0
 18 30  1  0  0  0  0
 18 31  1  0  0  0  0
 18 32  1  0  0  0  0
 19 20  1  0  0  0  0
 19 33  1  0  0  0  0
 20 34  1  0  0  0  0
 20 35  1  0  0  0  0
 20 36  1  0  0  0  0
M  END
> <ConfClashScore>
0 

> <ConfOneFourInteractionScore>
-0.981931 

> <ConfScore>
0.588358 

> <ConfScorePBest>
0.00891849 

> <ConfTolerance>
0.424104 

$$$$
5FW.qm
 OpenBabel09182216093D

 36 37  0  0  0  0  0  0  0  0999 V2000
    7.8532   -1.2760    1.0889 C   0  0  0  1  0  0  0  0  0  0  0  0
    7.6372   -2.2547    3.3645 N   0  0  0  1  0  0  0  0  0  0  0  0
    7.0423   -2.1379    2.0416 C   0  0  0  1  0  0  0  0  0  0  0  0
    5.6300   -1.5599    2.1660 C   0  0  0  1  0  0  0  0  0  0  0  0
    4.7475   -2.3536    3.0919 C   0  0  0  1  0  0  0  0  0  0  0  0
    3.8453   -3.3289    2.7368 C   0  0  0  1  0  0  0  0  0  0  0  0
    3.2109   -3.8263    3.8566 N   0  0  0  1  0  0  0  0  0  0  0  0
    3.7161   -3.1909    4.9752 C   0  0  0  1  0  0  0  0  0  0  0  0
    3.4156   -3.3627    6.3299 C   0  0  0  1  0  0  0  0  0  0  0  0
    4.0847   -2.5615    7.2504 C   0  0  0  1  0  0  0  0  0  0  0  0
    5.0297   -1.6260    6.7984 C   0  0  0  1  0  0  0  0  0  0  0  0
    5.3470   -1.4380    5.4666 C   0  0  0  1  0  0  0  0  0  0  0  0
    4.6798   -2.2432    4.5241 C   0  0  0  1  0  0  0  0  0  0  0  0
    7.4397   -1.0183   -0.0400 O   0  0  0  1  0  0  0  0  0  0  0  0
    5.6626   -0.8689    7.7151 F   0  0  0  1  0  0  0  0  0  0  0  0
    7.8644   -3.4490    3.9497 C   0  0  0  1  0  0  0  0  0  0  0  0
    7.4714   -4.4926    3.4351 O   0  0  0  1  0  0  0  0  0  0  0  0
    8.6182   -3.4665    5.2602 C   0  0  0  1  0  0  0  0  0  0  0  0
    9.0535   -0.9049    1.5432 N   0  0  0  1  0  0  0  0  0  0  0  0
    9.9221   -0.0047    0.7995 C   0  0  0  1  0  0  0  0  0  0  0  0
    7.8814   -1.4375    3.8471 H   0  0  0  1  0  0  0  0  0  0  0  0
    6.9596   -3.1150    1.6135 H   0  0  0  1  0  0  0  0  0  0  0  0
    5.1805   -1.5469    1.1951 H   0  0  0  1  0  0  0  0  0  0  0  0
    5.7030   -0.5598    2.5392 H   0  0  0  1  0  0  0  0  0  0  0  0
    3.6666   -3.6464    1.7627 H   0  0  0  1  0  0  0  0  0  0  0  0
    2.5158   -4.5171    3.8585 H   0  0  0  1  0  0  0  0  0  0  0  0
    2.7150   -4.0661    6.6395 H   0  0  0  1  0  0  0  0  0  0  0  0
    3.8862   -2.6550    8.2670 H   0  0  0  1  0  0  0  0  0  0  0  0
    6.0502   -0.7304    5.1725 H   0  0  0  1  0  0  0  0  0  0  0  0
    8.0755   -2.9053    5.9920 H   0  0  0  1  0  0  0  0  0  0  0  0
    9.5850   -3.0296    5.1210 H   0  0  0  1  0  0  0  0  0  0  0  0
    8.7277   -4.4769    5.5949 H   0  0  0  1  0  0  0  0  0  0  0  0
    9.3598   -1.2510    2.4074 H   0  0  0  1  0  0  0  0  0  0  0  0
    9.3269    0.7111    0.2721 H   0  0  0  1  0  0  0  0  0  0  0  0
   10.5047   -0.5680    0.1007 H   0  0  0  1  0  0  0  0  0  0  0  0
   10.5732    0.5045    1.4789 H   0  0  0  1  0  0  0  0  0  0  0  0
  1  3  1  0  0  0  0
  1 14  2  0  0  0  0
  1 19  1  0  0  0  0
  2  3  1  0  0  0  0
  2 16  1  0  0  0  0
  2 21  1  0  0  0  0
  3  4  1  0  0  0  0
  3 22  1  0  0  0  0
  4  5  1  0  0  0  0
  4 23  1  0  0  0  0
  4 24  1  0  0  0  0
  5  6  4  0  0  0  0
  5 13  4  0  0  0  0
  6  7  4  0  0  0  0
  6 25  1  0  0  0  0
  7  8  4  0  0  0  0
  7 26  1  0  0  0  0
  8  9  4  0  0  0  0
  8 13  4  0  0  0  0
  9 10  4  0  0  0  0
  9 27  1  0  0  0  0
 10 11  4  0  0  0  0
 10 28  1  0  0  0  0
 11 12  4  0  0  0  0
 11 15  1  0  0  0  0
 12 13  4  0  0  0  0
 12 29  1  0  0  0  0
 16 17  2  0  0  0  0
 16 18  1  0  0  0  0
 18 30  1  0  0  0  0
 18 31  1  0  0  0  0
 18 32  1  0  0  0  0
 19 20  1  0  0  0  0
 19 33  1  0  0  0  0
 20 34  1  0  0  0  0
 20 35  1  0  0  0  0
 20 36  1  0  0  0  0
M  END
> <ConfClashScore>
0 

> <ConfOneFourInteractionScore>
-0.946346 

> <ConfScore>
0.59153 

> <ConfScorePBest>
0.00881549 

> <ConfTolerance>
0.481362 

$$$$
5FW.qm
 OpenBabel09182216093D

 36 37  0  0  0  0  0  0  0  0999 V2000
    4.0937    0.3627    2.5015 C   0  0  0  1  0  0  0  0  0  0  0  0
    5.8548    0.4233    0.7550 N   0  0  0  1  0  0  0  0  0  0  0  0
    4.8994   -0.4030    1.4701 C   0  0  0  1  0  0  0  0  0  0  0  0
    5.6357   -1.5548    2.1595 C   0  0  0  1  0  0  0  0  0  0  0  0
    4.7469   -2.3542    3.0922 C   0  0  0  1  0  0  0  0  0  0  0  0
    3.8447   -3.3295    2.7373 C   0  0  0  1  0  0  0  0  0  0  0  0
    3.2104   -3.8268    3.8572 N   0  0  0  1  0  0  0  0  0  0  0  0
    3.7157   -3.1913    4.9757 C   0  0  0  1  0  0  0  0  0  0  0  0
    3.4154   -3.3629    6.3304 C   0  0  0  1  0  0  0  0  0  0  0  0
    4.0846   -2.5617    7.2508 C   0  0  0  1  0  0  0  0  0  0  0  0
    5.0294   -1.6262    6.7987 C   0  0  0  1  0  0  0  0  0  0  0  0
    5.3466   -1.4383    5.4668 C   0  0  0  1  0  0  0  0  0  0  0  0
    4.6794   -2.2436    4.5244 C   0  0  0  1  0  0  0  0  0  0  0  0
    4.6145    1.2269    3.2055 O   0  0  0  1  0  0  0  0  0  0  0  0
    5.6624   -0.8690    7.7152 F   0  0  0  1  0  0  0  0  0  0  0  0
    5.4107    1.5440    0.1791 C   0  0  0  1  0  0  0  0  0  0  0  0
    4.2521    1.9177    0.2585 O   0  0  0  1  0  0  0  0  0  0  0  0
    6.4435    2.3417   -0.5931 C   0  0  0  1  0  0  0  0  0  0  0  0
    2.7949    0.0342    2.5881 N   0  0  0  1  0  0  0  0  0  0  0  0
    1.9800    0.5566    3.6748 C   0  0  0  1  0  0  0  0  0  0  0  0
    6.7987    0.1663    0.6963 H   0  0  0  1  0  0  0  0  0  0  0  0
    4.2152   -0.8276    0.7655 H   0  0  0  1  0  0  0  0  0  0  0  0
    6.4472   -1.1492    2.7268 H   0  0  0  1  0  0  0  0  0  0  0  0
    6.0190   -2.2125    1.4076 H   0  0  0  1  0  0  0  0  0  0  0  0
    3.6659   -3.6470    1.7632 H   0  0  0  1  0  0  0  0  0  0  0  0
    2.5153   -4.5176    3.8592 H   0  0  0  1  0  0  0  0  0  0  0  0
    2.7148   -4.0663    6.6402 H   0  0  0  1  0  0  0  0  0  0  0  0
    3.8861   -2.6551    8.2674 H   0  0  0  1  0  0  0  0  0  0  0  0
    6.0498   -0.7308    5.1726 H   0  0  0  1  0  0  0  0  0  0  0  0
    6.1926    3.3812   -0.5563 H   0  0  0  1  0  0  0  0  0  0  0  0
    6.4580    2.0144   -1.6117 H   0  0  0  1  0  0  0  0  0  0  0  0
    7.4088    2.1923   -0.1562 H   0  0  0  1  0  0  0  0  0  0  0  0
    2.3947   -0.5585    1.9182 H   0  0  0  1  0  0  0  0  0  0  0  0
    2.2993    1.5491    3.9155 H   0  0  0  1  0  0  0  0  0  0  0  0
    2.0880   -0.0709    4.5348 H   0  0  0  1  0  0  0  0  0  0  0  0
    0.9536    0.5758    3.3733 H   0  0  0  1  0  0  0  0  0  0  0  0
  1  3  1  0  0  0  0
  1 14  2  0  0  0  0
  1 19  1  0  0  0  0
  2  3  1  0  0  0  0
  2 16  1  0  0  0  0
  2 21  1  0  0  0  0
  3  4  1  0  0  0  0
  3 22  1  0  0  0  0
  4  5  1  0  0  0  0
  4 23  1  0  0  0  0
  4 24  1  0  0  0  0
  5  6  4  0  0  0  0
  5 13  4  0  0  0  0
  6  7  4  0  0  0  0
  6 25  1  0  0  0  0
  7  8  4  0  0  0  0
  7 26  1  0  0  0  0
  8  9  4  0  0  0  0
  8 13  4  0  0  0  0
  9 10  4  0  0  0  0
  9 27  1  0  0  0  0
 10 11  4  0  0  0  0
 10 28  1  0  0  0  0
 11 12  4  0  0  0  0
 11 15  1  0  0  0  0
 12 13  4  0  0  0  0
 12 29  1  0  0  0  0
 16 17  2  0  0  0  0
 16 18  1  0  0  0  0
 18 30  1  0  0  0  0
 18 31  1  0  0  0  0
 18 32  1  0  0  0  0
 19 20  1  0  0  0  0
 19 33  1  0  0  0  0
 20 34  1  0  0  0  0
 20 35  1  0  0  0  0
 20 36  1  0  0  0  0
M  END
> <ConfClashScore>
0 

> <ConfOneFourInteractionScore>
-0.981931 

> <ConfScore>
0.591817 

> <ConfScorePBest>
0.00871249 

> <ConfTolerance>
0.768462 

$$$$
5FW.qm
 OpenBabel09182216093D

 36 37  0  0  0  0  0  0  0  0999 V2000
    4.9367    0.7624    2.8348 C   0  0  0  1  0  0  0  0  0  0  0  0
    5.8949    0.3194    0.6600 N   0  0  0  1  0  0  0  0  0  0  0  0
    5.0343   -0.2365    1.6936 C   0  0  0  1  0  0  0  0  0  0  0  0
    5.6215   -1.5556    2.1684 C   0  0  0  1  0  0  0  0  0  0  0  0
    4.7428   -2.3581    3.0956 C   0  0  0  1  0  0  0  0  0  0  0  0
    3.8456   -3.3234    2.7449 C   0  0  0  1  0  0  0  0  0  0  0  0
    3.2220   -3.8185    3.8615 N   0  0  0  1  0  0  0  0  0  0  0  0
    3.7239   -3.1912    4.9688 C   0  0  0  1  0  0  0  0  0  0  0  0
    3.4214   -3.3553    6.3234 C   0  0  0  1  0  0  0  0  0  0  0  0
    4.0916   -2.5580    7.2255 C   0  0  0  1  0  0  0  0  0  0  0  0
    5.0304   -1.6199    6.8077 C   0  0  0  1  0  0  0  0  0  0  0  0
    5.3339   -1.4613    5.4735 C   0  0  0  1  0  0  0  0  0  0  0  0
    4.6809   -2.2609    4.5292 C   0  0  0  1  0  0  0  0  0  0  0  0
    5.9033    1.0037    3.5566 O   0  0  0  1  0  0  0  0  0  0  0  0
    5.6532   -0.8537    7.7237 F   0  0  0  1  0  0  0  0  0  0  0  0
    5.5378    0.3402   -0.6409 C   0  0  0  1  0  0  0  0  0  0  0  0
    4.4205   -0.0299   -0.9992 O   0  0  0  1  0  0  0  0  0  0  0  0
    6.5518    0.8324   -1.6485 C   0  0  0  1  0  0  0  0  0  0  0  0
    3.7463    1.3481    2.9932 N   0  0  0  1  0  0  0  0  0  0  0  0
    3.5398    2.4511    3.9198 C   0  0  0  1  0  0  0  0  0  0  0  0
    6.7640    0.6917    0.9179 H   0  0  0  1  0  0  0  0  0  0  0  0
    4.0558   -0.4137    1.2986 H   0  0  0  1  0  0  0  0  0  0  0  0
    6.5364   -1.3440    2.6815 H   0  0  0  1  0  0  0  0  0  0  0  0
    5.8261   -2.1552    1.3061 H   0  0  0  1  0  0  0  0  0  0  0  0
    3.6609   -3.6386    1.7712 H   0  0  0  1  0  0  0  0  0  0  0  0
    2.5282   -4.5106    3.8656 H   0  0  0  1  0  0  0  0  0  0  0  0
    2.7171   -4.0526    6.6385 H   0  0  0  1  0  0  0  0  0  0  0  0
    3.8913   -2.6596    8.2410 H   0  0  0  1  0  0  0  0  0  0  0  0
    6.0380   -0.7576    5.1726 H   0  0  0  1  0  0  0  0  0  0  0  0
    6.0454    1.1750   -2.5267 H   0  0  0  1  0  0  0  0  0  0  0  0
    7.2137    0.0327   -1.9079 H   0  0  0  1  0  0  0  0  0  0  0  0
    7.1140    1.6379   -1.2242 H   0  0  0  1  0  0  0  0  0  0  0  0
    2.9858    1.0235    2.4672 H   0  0  0  1  0  0  0  0  0  0  0  0
    3.9268    2.1868    4.8817 H   0  0  0  1  0  0  0  0  0  0  0  0
    2.4930    2.6571    4.0011 H   0  0  0  1  0  0  0  0  0  0  0  0
    4.0478    3.3205    3.5578 H   0  0  0  1  0  0  0  0  0  0  0  0
  1  3  1  0  0  0  0
  1 14  2  0  0  0  0
  1 19  1  0  0  0  0
  2  3  1  0  0  0  0
  2 16  1  0  0  0  0
  2 21  1  0  0  0  0
  3  4  1  0  0  0  0
  3 22  1  0  0  0  0
  4  5  1  0  0  0  0
  4 23  1  0  0  0  0
  4 24  1  0  0  0  0
  5  6  4  0  0  0  0
  5 13  4  0  0  0  0
  6  7  4  0  0  0  0
  6 25  1  0  0  0  0
  7  8  4  0  0  0  0
  7 26  1  0  0  0  0
  8  9  4  0  0  0  0
  8 13  4  0  0  0  0
  9 10  4  0  0  0  0
  9 27  1  0  0  0  0
 10 11  4  0  0  0  0
 10 28  1  0  0  0  0
 11 12  4  0  0  0  0
 11 15  1  0  0  0  0
 12 13  4  0  0  0  0
 12 29  1  0  0  0  0
 16 17  2  0  0  0  0
 16 18  1  0  0  0  0
 18 30  1  0  0  0  0
 18 31  1  0  0  0  0
 18 32  1  0  0  0  0
 19 20  1  0  0  0  0
 19 33  1  0  0  0  0
 20 34  1  0  0  0  0
 20 35  1  0  0  0  0
 20 36  1  0  0  0  0
M  END
> <ConfClashScore>
0 

> <ConfOneFourInteractionScore>
-0.97615 

> <ConfScore>
0.594643 

> <ConfScorePBest>
0.00860949 

> <ConfTolerance>
0.70526 

$$$$
5FW.qm
 OpenBabel09182216093D

 36 37  0  0  0  0  0  0  0  0999 V2000
    6.1294   -3.2985    0.4587 C   0  0  0  1  0  0  0  0  0  0  0  0
    4.0448   -2.0089    0.3550 N   0  0  0  1  0  0  0  0  0  0  0  0
    5.4595   -1.9492    0.6943 C   0  0  0  1  0  0  0  0  0  0  0  0
    5.6300   -1.5599    2.1660 C   0  0  0  1  0  0  0  0  0  0  0  0
    4.7475   -2.3536    3.0919 C   0  0  0  1  0  0  0  0  0  0  0  0
    3.8453   -3.3289    2.7368 C   0  0  0  1  0  0  0  0  0  0  0  0
    3.2109   -3.8263    3.8566 N   0  0  0  1  0  0  0  0  0  0  0  0
    3.7161   -3.1909    4.9752 C   0  0  0  1  0  0  0  0  0  0  0  0
    3.4156   -3.3627    6.3299 C   0  0  0  1  0  0  0  0  0  0  0  0
    4.0847   -2.5615    7.2504 C   0  0  0  1  0  0  0  0  0  0  0  0
    5.0297   -1.6260    6.7984 C   0  0  0  1  0  0  0  0  0  0  0  0
    5.3470   -1.4380    5.4666 C   0  0  0  1  0  0  0  0  0  0  0  0
    4.6798   -2.2432    4.5241 C   0  0  0  1  0  0  0  0  0  0  0  0
    7.3544   -3.4042    0.4154 O   0  0  0  1  0  0  0  0  0  0  0  0
    5.6626   -0.8689    7.7151 F   0  0  0  1  0  0  0  0  0  0  0  0
    3.7088   -2.2220   -0.9341 C   0  0  0  1  0  0  0  0  0  0  0  0
    4.5380   -2.3080   -1.8360 O   0  0  0  1  0  0  0  0  0  0  0  0
    2.2244   -2.3519   -1.2151 C   0  0  0  1  0  0  0  0  0  0  0  0
    5.3037   -4.3377    0.3057 N   0  0  0  1  0  0  0  0  0  0  0  0
    5.7893   -5.7025    0.1663 C   0  0  0  1  0  0  0  0  0  0  0  0
    3.3564   -1.8974    1.0435 H   0  0  0  1  0  0  0  0  0  0  0  0
    5.9447   -1.2137    0.0872 H   0  0  0  1  0  0  0  0  0  0  0  0
    5.3910   -0.5225    2.2738 H   0  0  0  1  0  0  0  0  0  0  0  0
    6.6500   -1.7224    2.4453 H   0  0  0  1  0  0  0  0  0  0  0  0
    3.6666   -3.6464    1.7627 H   0  0  0  1  0  0  0  0  0  0  0  0
    2.5158   -4.5171    3.8585 H   0  0  0  1  0  0  0  0  0  0  0  0
    2.7150   -4.0661    6.6395 H   0  0  0  1  0  0  0  0  0  0  0  0
    3.8862   -2.6550    8.2670 H   0  0  0  1  0  0  0  0  0  0  0  0
    6.0502   -0.7304    5.1725 H   0  0  0  1  0  0  0  0  0  0  0  0
    1.8662   -3.2799   -0.8208 H   0  0  0  1  0  0  0  0  0  0  0  0
    2.0580   -2.3257   -2.2717 H   0  0  0  1  0  0  0  0  0  0  0  0
    1.7016   -1.5419   -0.7510 H   0  0  0  1  0  0  0  0  0  0  0  0
    4.3375   -4.1751    0.2867 H   0  0  0  1  0  0  0  0  0  0  0  0
    6.2755   -5.8137   -0.7803 H   0  0  0  1  0  0  0  0  0  0  0  0
    4.9647   -6.3819    0.2255 H   0  0  0  1  0  0  0  0  0  0  0  0
    6.4845   -5.9153    0.9513 H   0  0  0  1  0  0  0  0  0  0  0  0
  1  3  1  0  0  0  0
  1 14  2  0  0  0  0
  1 19  1  0  0  0  0
  2  3  1  0  0  0  0
  2 16  1  0  0  0  0
  2 21  1  0  0  0  0
  3  4  1  0  0  0  0
  3 22  1  0  0  0  0
  4  5  1  0  0  0  0
  4 23  1  0  0  0  0
  4 24  1  0  0  0  0
  5  6  4  0  0  0  0
  5 13  4  0  0  0  0
  6  7  4  0  0  0  0
  6 25  1  0  0  0  0
  7  8  4  0  0  0  0
  7 26  1  0  0  0  0
  8  9  4  0  0  0  0
  8 13  4  0  0  0  0
  9 10  4  0  0  0  0
  9 27  1  0  0  0  0
 10 11  4  0  0  0  0
 10 28  1  0  0  0  0
 11 12  4  0  0  0  0
 11 15  1  0  0  0  0
 12 13  4  0  0  0  0
 12 29  1  0  0  0  0
 16 17  2  0  0  0  0
 16 18  1  0  0  0  0
 18 30  1  0  0  0  0
 18 31  1  0  0  0  0
 18 32  1  0  0  0  0
 19 20  1  0  0  0  0
 19 33  1  0  0  0  0
 20 34  1  0  0  0  0
 20 35  1  0  0  0  0
 20 36  1  0  0  0  0
M  END
> <ConfClashScore>
0 

> <ConfOneFourInteractionScore>
-0.924495 

> <ConfScore>
0.595236 

> <ConfScorePBest>
0.00850649 

> <ConfTolerance>
0.823542 

$$$$
5FW.qm
 OpenBabel09182216093D

 36 37  0  0  0  0  0  0  0  0999 V2000
    6.5237    0.7209    1.5344 C   0  0  0  1  0  0  0  0  0  0  0  0
    4.1442    0.4295    2.0925 N   0  0  0  1  0  0  0  0  0  0  0  0
    5.4942   -0.0468    2.3584 C   0  0  0  1  0  0  0  0  0  0  0  0
    5.6300   -1.5599    2.1660 C   0  0  0  1  0  0  0  0  0  0  0  0
    4.7475   -2.3536    3.0919 C   0  0  0  1  0  0  0  0  0  0  0  0
    3.8453   -3.3289    2.7368 C   0  0  0  1  0  0  0  0  0  0  0  0
    3.2109   -3.8263    3.8566 N   0  0  0  1  0  0  0  0  0  0  0  0
    3.7161   -3.1909    4.9752 C   0  0  0  1  0  0  0  0  0  0  0  0
    3.4156   -3.3627    6.3299 C   0  0  0  1  0  0  0  0  0  0  0  0
    4.0847   -2.5615    7.2504 C   0  0  0  1  0  0  0  0  0  0  0  0
    5.0297   -1.6260    6.7984 C   0  0  0  1  0  0  0  0  0  0  0  0
    5.3470   -1.4380    5.4666 C   0  0  0  1  0  0  0  0  0  0  0  0
    4.6798   -2.2432    4.5241 C   0  0  0  1  0  0  0  0  0  0  0  0
    6.3410    0.9529    0.3401 O   0  0  0  1  0  0  0  0  0  0  0  0
    5.6626   -0.8689    7.7151 F   0  0  0  1  0  0  0  0  0  0  0  0
    3.6840    1.6387    2.4146 C   0  0  0  1  0  0  0  0  0  0  0  0
    4.3261    2.4413    3.0870 O   0  0  0  1  0  0  0  0  0  0  0  0
    2.2995    1.9762    1.8965 C   0  0  0  1  0  0  0  0  0  0  0  0
    7.6173    1.1149    2.1931 N   0  0  0  1  0  0  0  0  0  0  0  0
    8.8072    1.6765    1.5715 C   0  0  0  1  0  0  0  0  0  0  0  0
    3.5272   -0.1851    1.6429 H   0  0  0  1  0  0  0  0  0  0  0  0
    5.7109    0.1531    3.3870 H   0  0  0  1  0  0  0  0  0  0  0  0
    6.6480   -1.8361    2.3458 H   0  0  0  1  0  0  0  0  0  0  0  0
    5.3678   -1.7998    1.1568 H   0  0  0  1  0  0  0  0  0  0  0  0
    3.6666   -3.6464    1.7627 H   0  0  0  1  0  0  0  0  0  0  0  0
    2.5158   -4.5171    3.8585 H   0  0  0  1  0  0  0  0  0  0  0  0
    2.7150   -4.0661    6.6395 H   0  0  0  1  0  0  0  0  0  0  0  0
    3.8862   -2.6550    8.2670 H   0  0  0  1  0  0  0  0  0  0  0  0
    6.0502   -0.7304    5.1725 H   0  0  0  1  0  0  0  0  0  0  0  0
    2.3261    2.9216    1.3959 H   0  0  0  1  0  0  0  0  0  0  0  0
    1.6144    2.0265    2.7169 H   0  0  0  1  0  0  0  0  0  0  0  0
    1.9810    1.2188    1.2111 H   0  0  0  1  0  0  0  0  0  0  0  0
    7.6182    1.0184    3.1684 H   0  0  0  1  0  0  0  0  0  0  0  0
    9.6655    1.4409    2.1655 H   0  0  0  1  0  0  0  0  0  0  0  0
    8.7041    2.7391    1.4997 H   0  0  0  1  0  0  0  0  0  0  0  0
    8.9270    1.2623    0.5922 H   0  0  0  1  0  0  0  0  0  0  0  0
  1  3  1  0  0  0  0
  1 14  2  0  0  0  0
  1 19  1  0  0  0  0
  2  3  1  0  0  0  0
  2 16  1  0  0  0  0
  2 21  1  0  0  0  0
  3  4  1  0  0  0  0
  3 22  1  0  0  0  0
  4  5  1  0  0  0  0
  4 23  1  0  0  0  0
  4 24  1  0  0  0  0
  5  6  4  0  0  0  0
  5 13  4  0  0  0  0
  6  7  4  0  0  0  0
  6 25  1  0  0  0  0
  7  8  4  0  0  0  0
  7 26  1  0  0  0  0
  8  9  4  0  0  0  0
  8 13  4  0  0  0  0
  9 10  4  0  0  0  0
  9 27  1  0  0  0  0
 10 11  4  0  0  0  0
 10 28  1  0  0  0  0
 11 12  4  0  0  0  0
 11 15  1  0  0  0  0
 12 13  4  0  0  0  0
 12 29  1  0  0  0  0
 16 17  2  0  0  0  0
 16 18  1  0  0  0  0
 18 30  1  0  0  0  0
 18 31  1  0  0  0  0
 18 32  1  0  0  0  0
 19 20  1  0  0  0  0
 19 33  1  0  0  0  0
 20 34  1  0  0  0  0
 20 35  1  0  0  0  0
 20 36  1  0  0  0  0
M  END
> <ConfClashScore>
0 

> <ConfOneFourInteractionScore>
-0.985807 

> <ConfScore>
0.595666 

> <ConfScorePBest>
0.00840348 

> <ConfTolerance>
0.717922 

$$$$
5FW.qm
 OpenBabel09182216093D

 36 37  0  0  0  0  0  0  0  0999 V2000
    3.7580   -0.1514    1.2809 C   0  0  0  1  0  0  0  0  0  0  0  0
    5.1489    0.6098    3.1737 N   0  0  0  1  0  0  0  0  0  0  0  0
    5.1242   -0.1431    1.9285 C   0  0  0  1  0  0  0  0  0  0  0  0
    5.6300   -1.5599    2.1660 C   0  0  0  1  0  0  0  0  0  0  0  0
    4.7475   -2.3536    3.0919 C   0  0  0  1  0  0  0  0  0  0  0  0
    3.8453   -3.3289    2.7368 C   0  0  0  1  0  0  0  0  0  0  0  0
    3.2109   -3.8263    3.8566 N   0  0  0  1  0  0  0  0  0  0  0  0
    3.7161   -3.1909    4.9752 C   0  0  0  1  0  0  0  0  0  0  0  0
    3.4156   -3.3627    6.3299 C   0  0  0  1  0  0  0  0  0  0  0  0
    4.0847   -2.5615    7.2504 C   0  0  0  1  0  0  0  0  0  0  0  0
    5.0297   -1.6260    6.7984 C   0  0  0  1  0  0  0  0  0  0  0  0
    5.3470   -1.4380    5.4666 C   0  0  0  1  0  0  0  0  0  0  0  0
    4.6798   -2.2432    4.5241 C   0  0  0  1  0  0  0  0  0  0  0  0
    2.7437    0.0358    1.9477 O   0  0  0  1  0  0  0  0  0  0  0  0
    5.6626   -0.8689    7.7151 F   0  0  0  1  0  0  0  0  0  0  0  0
    6.2811    1.0924    3.6936 C   0  0  0  1  0  0  0  0  0  0  0  0
    7.3793    1.0060    3.1458 O   0  0  0  1  0  0  0  0  0  0  0  0
    6.2115    1.7885    5.0388 C   0  0  0  1  0  0  0  0  0  0  0  0
    3.6883   -0.3683   -0.0356 N   0  0  0  1  0  0  0  0  0  0  0  0
    2.4212   -0.4134   -0.7500 C   0  0  0  1  0  0  0  0  0  0  0  0
    4.3057    0.7682    3.6474 H   0  0  0  1  0  0  0  0  0  0  0  0
    5.8001    0.3249    1.2436 H   0  0  0  1  0  0  0  0  0  0  0  0
    6.6095   -1.5048    2.5932 H   0  0  0  1  0  0  0  0  0  0  0  0
    5.6788   -2.0664    1.2247 H   0  0  0  1  0  0  0  0  0  0  0  0
    3.6666   -3.6464    1.7627 H   0  0  0  1  0  0  0  0  0  0  0  0
    2.5158   -4.5171    3.8585 H   0  0  0  1  0  0  0  0  0  0  0  0
    2.7150   -4.0661    6.6395 H   0  0  0  1  0  0  0  0  0  0  0  0
    3.8862   -2.6550    8.2670 H   0  0  0  1  0  0  0  0  0  0  0  0
    6.0502   -0.7304    5.1725 H   0  0  0  1  0  0  0  0  0  0  0  0
    5.1886    1.8904    5.3358 H   0  0  0  1  0  0  0  0  0  0  0  0
    6.6587    2.7576    4.9622 H   0  0  0  1  0  0  0  0  0  0  0  0
    6.7382    1.2088    5.7678 H   0  0  0  1  0  0  0  0  0  0  0  0
    4.5193   -0.5015   -0.5376 H   0  0  0  1  0  0  0  0  0  0  0  0
    2.5694   -0.0947   -1.7606 H   0  0  0  1  0  0  0  0  0  0  0  0
    1.7186    0.2360   -0.2709 H   0  0  0  1  0  0  0  0  0  0  0  0
    2.0439   -1.4147   -0.7437 H   0  0  0  1  0  0  0  0  0  0  0  0
  1  3  1  0  0  0  0
  1 14  2  0  0  0  0
  1 19  1  0  0  0  0
  2  3  1  0  0  0  0
  2 16  1  0  0  0  0
  2 21  1  0  0  0  0
  3  4  1  0  0  0  0
  3 22  1  0  0  0  0
  4  5  1  0  0  0  0
  4 23  1  0  0  0  0
  4 24  1  0  0  0  0
  5  6  4  0  0  0  0
  5 13  4  0  0  0  0
  6  7  4  0  0  0  0
  6 25  1  0  0  0  0
  7  8  4  0  0  0  0
  7 26  1  0  0  0  0
  8  9  4  0  0  0  0
  8 13  4  0  0  0  0
  9 10  4  0  0  0  0
  9 27  1  0  0  0  0
 10 11  4  0  0  0  0
 10 28  1  0  0  0  0
 11 12  4  0  0  0  0
 11 15  1  0  0  0  0
 12 13  4  0  0  0  0
 12 29  1  0  0  0  0
 16 17  2  0  0  0  0
 16 18  1  0  0  0  0
 18 30  1  0  0  0  0
 18 31  1  0  0  0  0
 18 32  1  0  0  0  0
 19 20  1  0  0  0  0
 19 33  1  0  0  0  0
 20 34  1  0  0  0  0
 20 35  1  0  0  0  0
 20 36  1  0  0  0  0
M  END
> <ConfClashScore>
0 

> <ConfOneFourInteractionScore>
-0.980789 

> <ConfScore>
0.604109 

> <ConfScorePBest>
0.00830048 

> <ConfTolerance>
0.52878 

$$$$
5FW.qm
 OpenBabel09182216093D

 36 37  0  0  0  0  0  0  0  0999 V2000
    7.1031   -3.4555    1.4486 C   0  0  0  1  0  0  0  0  0  0  0  0
    7.9310   -1.1646    1.3880 N   0  0  0  1  0  0  0  0  0  0  0  0
    7.0662   -2.0893    2.1055 C   0  0  0  1  0  0  0  0  0  0  0  0
    5.6300   -1.5599    2.1660 C   0  0  0  1  0  0  0  0  0  0  0  0
    4.7475   -2.3536    3.0919 C   0  0  0  1  0  0  0  0  0  0  0  0
    3.8453   -3.3289    2.7368 C   0  0  0  1  0  0  0  0  0  0  0  0
    3.2109   -3.8263    3.8566 N   0  0  0  1  0  0  0  0  0  0  0  0
    3.7161   -3.1909    4.9752 C   0  0  0  1  0  0  0  0  0  0  0  0
    3.4156   -3.3627    6.3299 C   0  0  0  1  0  0  0  0  0  0  0  0
    4.0847   -2.5615    7.2504 C   0  0  0  1  0  0  0  0  0  0  0  0
    5.0297   -1.6260    6.7984 C   0  0  0  1  0  0  0  0  0  0  0  0
    5.3470   -1.4380    5.4666 C   0  0  0  1  0  0  0  0  0  0  0  0
    4.6798   -2.2432    4.5241 C   0  0  0  1  0  0  0  0  0  0  0  0
    6.6669   -3.6285    0.3225 O   0  0  0  1  0  0  0  0  0  0  0  0
    5.6626   -0.8689    7.7151 F   0  0  0  1  0  0  0  0  0  0  0  0
    9.2122   -1.4408    1.1287 C   0  0  0  1  0  0  0  0  0  0  0  0
    9.7412   -2.4944    1.4422 O   0  0  0  1  0  0  0  0  0  0  0  0
    9.9880   -0.3540    0.4102 C   0  0  0  1  0  0  0  0  0  0  0  0
    7.6411   -4.4416    2.1836 N   0  0  0  1  0  0  0  0  0  0  0  0
    7.6821   -5.8213    1.7224 C   0  0  0  1  0  0  0  0  0  0  0  0
    7.5607   -0.3095    1.0844 H   0  0  0  1  0  0  0  0  0  0  0  0
    7.4231   -2.1917    3.1090 H   0  0  0  1  0  0  0  0  0  0  0  0
    5.2116   -1.5969    1.1819 H   0  0  0  1  0  0  0  0  0  0  0  0
    5.6549   -0.5456    2.5056 H   0  0  0  1  0  0  0  0  0  0  0  0
    3.6666   -3.6464    1.7627 H   0  0  0  1  0  0  0  0  0  0  0  0
    2.5158   -4.5171    3.8585 H   0  0  0  1  0  0  0  0  0  0  0  0
    2.7150   -4.0661    6.6395 H   0  0  0  1  0  0  0  0  0  0  0  0
    3.8862   -2.6550    8.2670 H   0  0  0  1  0  0  0  0  0  0  0  0
    6.0502   -0.7304    5.1725 H   0  0  0  1  0  0  0  0  0  0  0  0
   10.0378    0.5177    1.0288 H   0  0  0  1  0  0  0  0  0  0  0  0
    9.4950   -0.1117   -0.5080 H   0  0  0  1  0  0  0  0  0  0  0  0
   10.9787   -0.7010    0.2029 H   0  0  0  1  0  0  0  0  0  0  0  0
    8.0193   -4.2249    3.0613 H   0  0  0  1  0  0  0  0  0  0  0  0
    6.8486   -6.0073    1.0777 H   0  0  0  1  0  0  0  0  0  0  0  0
    7.6355   -6.4801    2.5642 H   0  0  0  1  0  0  0  0  0  0  0  0
    8.5923   -5.9908    1.1860 H   0  0  0  1  0  0  0  0  0  0  0  0
  1  3  1  0  0  0  0
  1 14  2  0  0  0  0
  1 19  1  0  0  0  0
  2  3  1  0  0  0  0
  2 16  1  0  0  0  0
  2 21  1  0  0  0  0
  3  4  1  0  0  0  0
  3 22  1  0  0  0  0
  4  5  1  0  0  0  0
  4 23  1  0  0  0  0
  4 24  1  0  0  0  0
  5  6  4  0  0  0  0
  5 13  4  0  0  0  0
  6  7  4  0  0  0  0
  6 25  1  0  0  0  0
  7  8  4  0  0  0  0
  7 26  1  0  0  0  0
  8  9  4  0  0  0  0
  8 13  4  0  0  0  0
  9 10  4  0  0  0  0
  9 27  1  0  0  0  0
 10 11  4  0  0  0  0
 10 28  1  0  0  0  0
 11 12  4  0  0  0  0
 11 15  1  0  0  0  0
 12 13  4  0  0  0  0
 12 29  1  0  0  0  0
 16 17  2  0  0  0  0
 16 18  1  0  0  0  0
 18 30  1  0  0  0  0
 18 31  1  0  0  0  0
 18 32  1  0  0  0  0
 19 20  1  0  0  0  0
 19 33  1  0  0  0  0
 20 34  1  0  0  0  0
 20 35  1  0  0  0  0
 20 36  1  0  0  0  0
M  END
> <ConfClashScore>
0 

> <ConfOneFourInteractionScore>
-0.971454 

> <ConfScore>
0.60682 

> <ConfScorePBest>
0.00819748 

> <ConfTolerance>
0.355673 

$$$$
5FW.qm
 OpenBabel09182216093D

 36 37  0  0  0  0  0  0  0  0999 V2000
    6.7704    0.6775    1.8716 C   0  0  0  1  0  0  0  0  0  0  0  0
    4.3352    0.4707    2.3412 N   0  0  0  1  0  0  0  0  0  0  0  0
    5.6592   -0.0829    2.5869 C   0  0  0  1  0  0  0  0  0  0  0  0
    5.6248   -1.5526    2.1646 C   0  0  0  1  0  0  0  0  0  0  0  0
    4.7425   -2.3584    3.0958 C   0  0  0  1  0  0  0  0  0  0  0  0
    3.8453   -3.3237    2.7452 C   0  0  0  1  0  0  0  0  0  0  0  0
    3.2217   -3.8188    3.8619 N   0  0  0  1  0  0  0  0  0  0  0  0
    3.7237   -3.1914    4.9691 C   0  0  0  1  0  0  0  0  0  0  0  0
    3.4212   -3.3554    6.3237 C   0  0  0  1  0  0  0  0  0  0  0  0
    4.0915   -2.5581    7.2258 C   0  0  0  1  0  0  0  0  0  0  0  0
    5.0303   -1.6201    6.8078 C   0  0  0  1  0  0  0  0  0  0  0  0
    5.3337   -1.4615    5.4736 C   0  0  0  1  0  0  0  0  0  0  0  0
    4.6807   -2.2612    4.5294 C   0  0  0  1  0  0  0  0  0  0  0  0
    7.9361    0.6203    2.2607 O   0  0  0  1  0  0  0  0  0  0  0  0
    5.6531   -0.8538    7.7237 F   0  0  0  1  0  0  0  0  0  0  0  0
    3.8192    1.5058    3.0909 C   0  0  0  1  0  0  0  0  0  0  0  0
    4.4780    1.9967    3.9881 O   0  0  0  1  0  0  0  0  0  0  0  0
    2.4357    1.9566    2.7227 C   0  0  0  1  0  0  0  0  0  0  0  0
    6.3925    1.3956    0.8129 N   0  0  0  1  0  0  0  0  0  0  0  0
    7.3281    2.2102    0.0521 C   0  0  0  1  0  0  0  0  0  0  0  0
    3.7920    0.0942    1.6176 H   0  0  0  1  0  0  0  0  0  0  0  0
    5.8588   -0.0474    3.6376 H   0  0  0  1  0  0  0  0  0  0  0  0
    6.6183   -1.9489    2.1923 H   0  0  0  1  0  0  0  0  0  0  0  0
    5.2400   -1.6225    1.1687 H   0  0  0  1  0  0  0  0  0  0  0  0
    3.6605   -3.6390    1.7715 H   0  0  0  1  0  0  0  0  0  0  0  0
    2.5279   -4.5109    3.8660 H   0  0  0  1  0  0  0  0  0  0  0  0
    2.7170   -4.0528    6.6389 H   0  0  0  1  0  0  0  0  0  0  0  0
    3.8913   -2.6596    8.2413 H   0  0  0  1  0  0  0  0  0  0  0  0
    6.0378   -0.7578    5.1726 H   0  0  0  1  0  0  0  0  0  0  0  0
    2.4237    2.2744    1.7011 H   0  0  0  1  0  0  0  0  0  0  0  0
    2.1468    2.7715    3.3530 H   0  0  0  1  0  0  0  0  0  0  0  0
    1.7503    1.1450    2.8516 H   0  0  0  1  0  0  0  0  0  0  0  0
    5.4521    1.3739    0.5379 H   0  0  0  1  0  0  0  0  0  0  0  0
    8.2556    2.2773    0.5813 H   0  0  0  1  0  0  0  0  0  0  0  0
    6.9213    3.1910   -0.0799 H   0  0  0  1  0  0  0  0  0  0  0  0
    7.4954    1.7612   -0.9047 H   0  0  0  1  0  0  0  0  0  0  0  0
  1  3  1  0  0  0  0
  1 14  2  0  0  0  0
  1 19  1  0  0  0  0
  2  3  1  0  0  0  0
  2 16  1  0  0  0  0
  2 21  1  0  0  0  0
  3  4  1  0  0  0  0
  3 22  1  0  0  0  0
  4  5  1  0  0  0  0
  4 23  1  0  0  0  0
  4 24  1  0  0  0  0
  5  6  4  0  0  0  0
  5 13  4  0  0  0  0
  6  7  4  0  0  0  0
  6 25  1  0  0  0  0
  7  8  4  0  0  0  0
  7 26  1  0  0  0  0
  8  9  4  0  0  0  0
  8 13  4  0  0  0  0
  9 10  4  0  0  0  0
  9 27  1  0  0  0  0
 10 11  4  0  0  0  0
 10 28  1  0  0  0  0
 11 12  4  0  0  0  0
 11 15  1  0  0  0  0
 12 13  4  0  0  0  0
 12 29  1  0  0  0  0
 16 17  2  0  0  0  0
 16 18  1  0  0  0  0
 18 30  1  0  0  0  0
 18 31  1  0  0  0  0
 18 32  1  0  0  0  0
 19 20  1  0  0  0  0
 19 33  1  0  0  0  0
 20 34  1  0  0  0  0
 20 35  1  0  0  0  0
 20 36  1  0  0  0  0
M  END
> <ConfClashScore>
0 

> <ConfOneFourInteractionScore>
-0.956443 

> <ConfScore>
0.610653 

> <ConfScorePBest>
0.00809448 

> <ConfTolerance>
0.914434 

$$$$
5FW.qm
 OpenBabel09182216093D

 36 37  0  0  0  0  0  0  0  0999 V2000
    7.3856   -3.0555    1.0561 C   0  0  0  1  0  0  0  0  0  0  0  0
    8.0350   -0.9263    2.1546 N   0  0  0  1  0  0  0  0  0  0  0  0
    7.0674   -2.0411    2.1373 C   0  0  0  1  0  0  0  0  0  0  0  0
    5.6251   -1.5523    2.1643 C   0  0  0  1  0  0  0  0  0  0  0  0
    4.7425   -2.3585    3.0958 C   0  0  0  1  0  0  0  0  0  0  0  0
    3.8452   -3.3238    2.7452 C   0  0  0  1  0  0  0  0  0  0  0  0
    3.2217   -3.8188    3.8619 N   0  0  0  1  0  0  0  0  0  0  0  0
    3.7237   -3.1914    4.9691 C   0  0  0  1  0  0  0  0  0  0  0  0
    3.4212   -3.3554    6.3237 C   0  0  0  1  0  0  0  0  0  0  0  0
    4.0915   -2.5581    7.2258 C   0  0  0  1  0  0  0  0  0  0  0  0
    5.0303   -1.6201    6.8079 C   0  0  0  1  0  0  0  0  0  0  0  0
    5.3337   -1.4615    5.4736 C   0  0  0  1  0  0  0  0  0  0  0  0
    4.6806   -2.2612    4.5295 C   0  0  0  1  0  0  0  0  0  0  0  0
    6.9414   -4.2018    1.1055 O   0  0  0  1  0  0  0  0  0  0  0  0
    5.6531   -0.8538    7.7237 F   0  0  0  1  0  0  0  0  0  0  0  0
    9.3273   -1.1601    2.4292 C   0  0  0  1  0  0  0  0  0  0  0  0
    9.7504   -2.3072    2.5665 O   0  0  0  1  0  0  0  0  0  0  0  0
   10.2515    0.0287    2.5656 C   0  0  0  1  0  0  0  0  0  0  0  0
    8.1728   -2.6189    0.0602 N   0  0  0  1  0  0  0  0  0  0  0  0
    8.6328   -3.3716   -1.0972 C   0  0  0  1  0  0  0  0  0  0  0  0
    7.7328   -0.0135    1.9650 H   0  0  0  1  0  0  0  0  0  0  0  0
    7.2040   -2.5603    3.0629 H   0  0  0  1  0  0  0  0  0  0  0  0
    5.2247   -1.6178    1.1742 H   0  0  0  1  0  0  0  0  0  0  0  0
    5.6173   -0.5319    2.4860 H   0  0  0  1  0  0  0  0  0  0  0  0
    3.6605   -3.6390    1.7715 H   0  0  0  1  0  0  0  0  0  0  0  0
    2.5279   -4.5109    3.8660 H   0  0  0  1  0  0  0  0  0  0  0  0
    2.7170   -4.0528    6.6390 H   0  0  0  1  0  0  0  0  0  0  0  0
    3.8913   -2.6596    8.2413 H   0  0  0  1  0  0  0  0  0  0  0  0
    6.0378   -0.7579    5.1726 H   0  0  0  1  0  0  0  0  0  0  0  0
   10.8661   -0.0943    3.4327 H   0  0  0  1  0  0  0  0  0  0  0  0
    9.6708    0.9220    2.6641 H   0  0  0  1  0  0  0  0  0  0  0  0
   10.8714    0.0998    1.6964 H   0  0  0  1  0  0  0  0  0  0  0  0
    8.4716   -1.6875    0.1194 H   0  0  0  1  0  0  0  0  0  0  0  0
    7.7984   -3.6089   -1.7236 H   0  0  0  1  0  0  0  0  0  0  0  0
    9.1019   -4.2761   -0.7707 H   0  0  0  1  0  0  0  0  0  0  0  0
    9.3362   -2.7832   -1.6484 H   0  0  0  1  0  0  0  0  0  0  0  0
  1  3  1  0  0  0  0
  1 14  2  0  0  0  0
  1 19  1  0  0  0  0
  2  3  1  0  0  0  0
  2 16  1  0  0  0  0
  2 21  1  0  0  0  0
  3  4  1  0  0  0  0
  3 22  1  0  0  0  0
  4  5  1  0  0  0  0
  4 23  1  0  0  0  0
  4 24  1  0  0  0  0
  5  6  4  0  0  0  0
  5 13  4  0  0  0  0
  6  7  4  0  0  0  0
  6 25  1  0  0  0  0
  7  8  4  0  0  0  0
  7 26  1  0  0  0  0
  8  9  4  0  0  0  0
  8 13  4  0  0  0  0
  9 10  4  0  0  0  0
  9 27  1  0  0  0  0
 10 11  4  0  0  0  0
 10 28  1  0  0  0  0
 11 12  4  0  0  0  0
 11 15  1  0  0  0  0
 12 13  4  0  0  0  0
 12 29  1  0  0  0  0
 16 17  2  0  0  0  0
 16 18  1  0  0  0  0
 18 30  1  0  0  0  0
 18 31  1  0  0  0  0
 18 32  1  0  0  0  0
 19 20  1  0  0  0  0
 19 33  1  0  0  0  0
 20 34  1  0  0  0  0
 20 35  1  0  0  0  0
 20 36  1  0  0  0  0
M  END
> <ConfClashScore>
0 

> <ConfOneFourInteractionScore>
-0.948834 

> <ConfScore>
0.615032 

> <ConfScorePBest>
0.00799148 

> <ConfTolerance>
0.944625 

$$$$
5FW.qm
 OpenBabel09182216093D

 36 37  0  0  0  0  0  0  0  0999 V2000
    6.5693   -3.7531    1.4802 C   0  0  0  1  0  0  0  0  0  0  0  0
    7.6484   -1.6102    0.8149 N   0  0  0  1  0  0  0  0  0  0  0  0
    6.9115   -2.3173    1.8527 C   0  0  0  1  0  0  0  0  0  0  0  0
    5.6198   -1.5571    2.1704 C   0  0  0  1  0  0  0  0  0  0  0  0
    4.7430   -2.3580    3.0955 C   0  0  0  1  0  0  0  0  0  0  0  0
    3.8458   -3.3232    2.7448 C   0  0  0  1  0  0  0  0  0  0  0  0
    3.2222   -3.8184    3.8613 N   0  0  0  1  0  0  0  0  0  0  0  0
    3.7241   -3.1911    4.9686 C   0  0  0  1  0  0  0  0  0  0  0  0
    3.4215   -3.3552    6.3232 C   0  0  0  1  0  0  0  0  0  0  0  0
    4.0916   -2.5579    7.2254 C   0  0  0  1  0  0  0  0  0  0  0  0
    5.0305   -1.6199    6.8076 C   0  0  0  1  0  0  0  0  0  0  0  0
    5.3340   -1.4612    5.4735 C   0  0  0  1  0  0  0  0  0  0  0  0
    4.6811   -2.2608    4.5291 C   0  0  0  1  0  0  0  0  0  0  0  0
    6.3131   -4.0387    0.3112 O   0  0  0  1  0  0  0  0  0  0  0  0
    5.6532   -0.8537    7.7236 F   0  0  0  1  0  0  0  0  0  0  0  0
    8.8383   -2.0101    0.3257 C   0  0  0  1  0  0  0  0  0  0  0  0
    9.4203   -3.0292    0.6610 O   0  0  0  1  0  0  0  0  0  0  0  0
    9.4203   -1.0663   -0.7086 C   0  0  0  1  0  0  0  0  0  0  0  0
    6.6501   -4.6644    2.4556 N   0  0  0  1  0  0  0  0  0  0  0  0
    6.5260   -6.0914    2.1985 C   0  0  0  1  0  0  0  0  0  0  0  0
    7.2538   -0.7912    0.4490 H   0  0  0  1  0  0  0  0  0  0  0  0
    7.5054   -2.3401    2.7425 H   0  0  0  1  0  0  0  0  0  0  0  0
    5.0901   -1.3696    1.2598 H   0  0  0  1  0  0  0  0  0  0  0  0
    5.8662   -0.6269    2.6383 H   0  0  0  1  0  0  0  0  0  0  0  0
    3.6612   -3.6384    1.7710 H   0  0  0  1  0  0  0  0  0  0  0  0
    2.5284   -4.5105    3.8653 H   0  0  0  1  0  0  0  0  0  0  0  0
    2.7172   -4.0526    6.6383 H   0  0  0  1  0  0  0  0  0  0  0  0
    3.8913   -2.6596    8.2408 H   0  0  0  1  0  0  0  0  0  0  0  0
    6.0382   -0.7575    5.1725 H   0  0  0  1  0  0  0  0  0  0  0  0
    8.7800   -1.0366   -1.5654 H   0  0  0  1  0  0  0  0  0  0  0  0
   10.3902   -1.4113   -1.0003 H   0  0  0  1  0  0  0  0  0  0  0  0
    9.5013   -0.0849   -0.2901 H   0  0  0  1  0  0  0  0  0  0  0  0
    6.7980   -4.3607    3.3755 H   0  0  0  1  0  0  0  0  0  0  0  0
    6.3911   -6.6107    3.1243 H   0  0  0  1  0  0  0  0  0  0  0  0
    7.4137   -6.4454    1.7173 H   0  0  0  1  0  0  0  0  0  0  0  0
    5.6819   -6.2673    1.5649 H   0  0  0  1  0  0  0  0  0  0  0  0
  1  3  1  0  0  0  0
  1 14  2  0  0  0  0
  1 19  1  0  0  0  0
  2  3  1  0  0  0  0
  2 16  1  0  0  0  0
  2 21  1  0  0  0  0
  3  4  1  0  0  0  0
  3 22  1  0  0  0  0
  4  5  1  0  0  0  0
  4 23  1  0  0  0  0
  4 24  1  0  0  0  0
  5  6  4  0  0  0  0
  5 13  4  0  0  0  0
  6  7  4  0  0  0  0
  6 25  1  0  0  0  0
  7  8  4  0  0  0  0
  7 26  1  0  0  0  0
  8  9  4  0  0  0  0
  8 13  4  0  0  0  0
  9 10  4  0  0  0  0
  9 27  1  0  0  0  0
 10 11  4  0  0  0  0
 10 28  1  0  0  0  0
 11 12  4  0  0  0  0
 11 15  1  0  0  0  0
 12 13  4  0  0  0  0
 12 29  1  0  0  0  0
 16 17  2  0  0  0  0
 16 18  1  0  0  0  0
 18 30  1  0  0  0  0
 18 31  1  0  0  0  0
 18 32  1  0  0  0  0
 19 20  1  0  0  0  0
 19 33  1  0  0  0  0
 20 34  1  0  0  0  0
 20 35  1  0  0  0  0
 20 36  1  0  0  0  0
M  END
> <ConfClashScore>
0 

> <ConfOneFourInteractionScore>
-0.974883 

> <ConfScore>
0.615213 

> <ConfScorePBest>
0.00788848 

> <ConfTolerance>
0.572959 

$$$$
5FW.qm
 OpenBabel09182216093D

 36 37  0  0  0  0  0  0  0  0999 V2000
    7.6294   -3.0683    2.3671 C   0  0  0  1  0  0  0  0  0  0  0  0
    7.9084   -0.6969    1.7754 N   0  0  0  1  0  0  0  0  0  0  0  0
    7.0987   -1.6474    2.5231 C   0  0  0  1  0  0  0  0  0  0  0  0
    5.6198   -1.5571    2.1704 C   0  0  0  1  0  0  0  0  0  0  0  0
    4.7430   -2.3580    3.0955 C   0  0  0  1  0  0  0  0  0  0  0  0
    3.8458   -3.3232    2.7448 C   0  0  0  1  0  0  0  0  0  0  0  0
    3.2222   -3.8184    3.8613 N   0  0  0  1  0  0  0  0  0  0  0  0
    3.7241   -3.1911    4.9686 C   0  0  0  1  0  0  0  0  0  0  0  0
    3.4215   -3.3552    6.3232 C   0  0  0  1  0  0  0  0  0  0  0  0
    4.0916   -2.5579    7.2254 C   0  0  0  1  0  0  0  0  0  0  0  0
    5.0305   -1.6199    6.8076 C   0  0  0  1  0  0  0  0  0  0  0  0
    5.3340   -1.4612    5.4735 C   0  0  0  1  0  0  0  0  0  0  0  0
    4.6811   -2.2608    4.5291 C   0  0  0  1  0  0  0  0  0  0  0  0
    7.8594   -3.5456    1.2567 O   0  0  0  1  0  0  0  0  0  0  0  0
    5.6532   -0.8537    7.7236 F   0  0  0  1  0  0  0  0  0  0  0  0
    8.6086    0.2705    2.3743 C   0  0  0  1  0  0  0  0  0  0  0  0
    8.6744    0.4155    3.5943 O   0  0  0  1  0  0  0  0  0  0  0  0
    9.3759    1.2594    1.4926 C   0  0  0  1  0  0  0  0  0  0  0  0
    7.8224   -3.7438    3.5035 N   0  0  0  1  0  0  0  0  0  0  0  0
    8.2420   -5.1367    3.4633 C   0  0  0  1  0  0  0  0  0  0  0  0
    7.9411   -0.7691    0.7986 H   0  0  0  1  0  0  0  0  0  0  0  0
    7.1842   -1.3986    3.5603 H   0  0  0  1  0  0  0  0  0  0  0  0
    5.4847   -1.9209    1.1732 H   0  0  0  1  0  0  0  0  0  0  0  0
    5.3199   -0.5312    2.2200 H   0  0  0  1  0  0  0  0  0  0  0  0
    3.6612   -3.6384    1.7710 H   0  0  0  1  0  0  0  0  0  0  0  0
    2.5284   -4.5105    3.8653 H   0  0  0  1  0  0  0  0  0  0  0  0
    2.7172   -4.0526    6.6383 H   0  0  0  1  0  0  0  0  0  0  0  0
    3.8913   -2.6596    8.2408 H   0  0  0  1  0  0  0  0  0  0  0  0
    6.0382   -0.7575    5.1725 H   0  0  0  1  0  0  0  0  0  0  0  0
    8.7120    1.6801    0.7665 H   0  0  0  1  0  0  0  0  0  0  0  0
   10.1722    0.7481    0.9933 H   0  0  0  1  0  0  0  0  0  0  0  0
    9.7797    2.0410    2.1016 H   0  0  0  1  0  0  0  0  0  0  0  0
    7.6811   -3.3004    4.3660 H   0  0  0  1  0  0  0  0  0  0  0  0
    9.0960   -5.2343    2.8261 H   0  0  0  1  0  0  0  0  0  0  0  0
    7.4432   -5.7388    3.0834 H   0  0  0  1  0  0  0  0  0  0  0  0
    8.4953   -5.4613    4.4510 H   0  0  0  1  0  0  0  0  0  0  0  0
  1  3  1  0  0  0  0
  1 14  2  0  0  0  0
  1 19  1  0  0  0  0
  2  3  1  0  0  0  0
  2 16  1  0  0  0  0
  2 21  1  0  0  0  0
  3  4  1  0  0  0  0
  3 22  1  0  0  0  0
  4  5  1  0  0  0  0
  4 23  1  0  0  0  0
  4 24  1  0  0  0  0
  5  6  4  0  0  0  0
  5 13  4  0  0  0  0
  6  7  4  0  0  0  0
  6 25  1  0  0  0  0
  7  8  4  0  0  0  0
  7 26  1  0  0  0  0
  8  9  4  0  0  0  0
  8 13  4  0  0  0  0
  9 10  4  0  0  0  0
  9 27  1  0  0  0  0
 10 11  4  0  0  0  0
 10 28  1  0  0  0  0
 11 12  4  0  0  0  0
 11 15  1  0  0  0  0
 12 13  4  0  0  0  0
 12 29  1  0  0  0  0
 16 17  2  0  0  0  0
 16 18  1  0  0  0  0
 18 30  1  0  0  0  0
 18 31  1  0  0  0  0
 18 32  1  0  0  0  0
 19 20  1  0  0  0  0
 19 33  1  0  0  0  0
 20 34  1  0  0  0  0
 20 35  1  0  0  0  0
 20 36  1  0  0  0  0
M  END
> <ConfClashScore>
0 

> <ConfOneFourInteractionScore>
-0.982823 

> <ConfScore>
0.616125 

> <ConfScorePBest>
0.00778548 

> <ConfTolerance>
0.587664 

$$$$
5FW.qm
 OpenBabel09182216093D

 36 37  0  0  0  0  0  0  0  0999 V2000
    4.2017   -1.7264    0.1220 C   0  0  0  1  0  0  0  0  0  0  0  0
    4.1286    0.2634    1.5884 N   0  0  0  1  0  0  0  0  0  0  0  0
    4.9662   -0.7932    1.0406 C   0  0  0  1  0  0  0  0  0  0  0  0
    5.6350   -1.5554    2.1603 C   0  0  0  1  0  0  0  0  0  0  0  0
    4.7470   -2.3541    3.0922 C   0  0  0  1  0  0  0  0  0  0  0  0
    3.8447   -3.3294    2.7372 C   0  0  0  1  0  0  0  0  0  0  0  0
    3.2105   -3.8267    3.8571 N   0  0  0  1  0  0  0  0  0  0  0  0
    3.7157   -3.1913    4.9756 C   0  0  0  1  0  0  0  0  0  0  0  0
    3.4154   -3.3629    6.3304 C   0  0  0  1  0  0  0  0  0  0  0  0
    4.0846   -2.5616    7.2508 C   0  0  0  1  0  0  0  0  0  0  0  0
    5.0295   -1.6262    6.7986 C   0  0  0  1  0  0  0  0  0  0  0  0
    5.3467   -1.4383    5.4668 C   0  0  0  1  0  0  0  0  0  0  0  0
    4.6794   -2.2435    4.5244 C   0  0  0  1  0  0  0  0  0  0  0  0
    4.7896   -2.4060   -0.7184 O   0  0  0  1  0  0  0  0  0  0  0  0
    5.6625   -0.8690    7.7152 F   0  0  0  1  0  0  0  0  0  0  0  0
    3.4610    1.0879    0.7670 C   0  0  0  1  0  0  0  0  0  0  0  0
    3.6389    1.0539   -0.4498 O   0  0  0  1  0  0  0  0  0  0  0  0
    2.4871    2.0566    1.3769 C   0  0  0  1  0  0  0  0  0  0  0  0
    2.8679   -1.7880    0.2534 N   0  0  0  1  0  0  0  0  0  0  0  0
    2.0500   -2.6959   -0.5369 C   0  0  0  1  0  0  0  0  0  0  0  0
    4.0521    0.3729    2.5593 H   0  0  0  1  0  0  0  0  0  0  0  0
    5.7410   -0.3371    0.4605 H   0  0  0  1  0  0  0  0  0  0  0  0
    6.1686   -0.8454    2.7569 H   0  0  0  1  0  0  0  0  0  0  0  0
    6.3270   -2.2386    1.7138 H   0  0  0  1  0  0  0  0  0  0  0  0
    3.6659   -3.6469    1.7632 H   0  0  0  1  0  0  0  0  0  0  0  0
    2.5154   -4.5175    3.8591 H   0  0  0  1  0  0  0  0  0  0  0  0
    2.7148   -4.0663    6.6402 H   0  0  0  1  0  0  0  0  0  0  0  0
    3.8861   -2.6551    8.2674 H   0  0  0  1  0  0  0  0  0  0  0  0
    6.0498   -0.7307    5.1726 H   0  0  0  1  0  0  0  0  0  0  0  0
    2.1416    1.6733    2.3142 H   0  0  0  1  0  0  0  0  0  0  0  0
    1.6550    2.1884    0.7172 H   0  0  0  1  0  0  0  0  0  0  0  0
    2.9713    2.9978    1.5335 H   0  0  0  1  0  0  0  0  0  0  0  0
    2.4291   -1.2012    0.9043 H   0  0  0  1  0  0  0  0  0  0  0  0
    2.6760   -3.2542   -1.2012 H   0  0  0  1  0  0  0  0  0  0  0  0
    1.3399   -2.1326   -1.1055 H   0  0  0  1  0  0  0  0  0  0  0  0
    1.5326   -3.3686    0.1149 H   0  0  0  1  0  0  0  0  0  0  0  0
  1  3  1  0  0  0  0
  1 14  2  0  0  0  0
  1 19  1  0  0  0  0
  2  3  1  0  0  0  0
  2 16  1  0  0  0  0
  2 21  1  0  0  0  0
  3  4  1  0  0  0  0
  3 22  1  0  0  0  0
  4  5  1  0  0  0  0
  4 23  1  0  0  0  0
  4 24  1  0  0  0  0
  5  6  4  0  0  0  0
  5 13  4  0  0  0  0
  6  7  4  0  0  0  0
  6 25  1  0  0  0  0
  7  8  4  0  0  0  0
  7 26  1  0  0  0  0
  8  9  4  0  0  0  0
  8 13  4  0  0  0  0
  9 10  4  0  0  0  0
  9 27  1  0  0  0  0
 10 11  4  0  0  0  0
 10 28  1  0  0  0  0
 11 12  4  0  0  0  0
 11 15  1  0  0  0  0
 12 13  4  0  0  0  0
 12 29  1  0  0  0  0
 16 17  2  0  0  0  0
 16 18  1  0  0  0  0
 18 30  1  0  0  0  0
 18 31  1  0  0  0  0
 18 32  1  0  0  0  0
 19 20  1  0  0  0  0
 19 33  1  0  0  0  0
 20 34  1  0  0  0  0
 20 35  1  0  0  0  0
 20 36  1  0  0  0  0
M  END
> <ConfClashScore>
0 

> <ConfOneFourInteractionScore>
-0.950605 

> <ConfScore>
0.621638 

> <ConfScorePBest>
0.00768248 

> <ConfTolerance>
0.96059 

$$$$
5FW.qm
 OpenBabel09182216093D

 36 37  0  0  0  0  0  0  0  0999 V2000
    3.6657    0.0089    1.6669 C   0  0  0  1  0  0  0  0  0  0  0  0
    5.6174    0.7635    2.9546 N   0  0  0  1  0  0  0  0  0  0  0  0
    5.1628   -0.1396    1.8789 C   0  0  0  1  0  0  0  0  0  0  0  0
    5.6293   -1.5606    2.1668 C   0  0  0  1  0  0  0  0  0  0  0  0
    4.7476   -2.3536    3.0919 C   0  0  0  1  0  0  0  0  0  0  0  0
    3.8454   -3.3288    2.7367 C   0  0  0  1  0  0  0  0  0  0  0  0
    3.2110   -3.8262    3.8565 N   0  0  0  1  0  0  0  0  0  0  0  0
    3.7161   -3.1909    4.9751 C   0  0  0  1  0  0  0  0  0  0  0  0
    3.4157   -3.3626    6.3298 C   0  0  0  1  0  0  0  0  0  0  0  0
    4.0848   -2.5615    7.2504 C   0  0  0  1  0  0  0  0  0  0  0  0
    5.0297   -1.6260    6.7984 C   0  0  0  1  0  0  0  0  0  0  0  0
    5.3470   -1.4380    5.4666 C   0  0  0  1  0  0  0  0  0  0  0  0
    4.6799   -2.2431    4.5240 C   0  0  0  1  0  0  0  0  0  0  0  0
    3.1511   -0.2399    0.5891 O   0  0  0  1  0  0  0  0  0  0  0  0
    5.6626   -0.8689    7.7151 F   0  0  0  1  0  0  0  0  0  0  0  0
    5.5090    2.0945    2.9129 C   0  0  0  1  0  0  0  0  0  0  0  0
    5.1044    2.7029    1.9232 O   0  0  0  1  0  0  0  0  0  0  0  0
    5.9190    2.8286    4.1747 C   0  0  0  1  0  0  0  0  0  0  0  0
    2.9644    0.4261    2.7329 N   0  0  0  1  0  0  0  0  0  0  0  0
    1.5178    0.5820    2.6991 C   0  0  0  1  0  0  0  0  0  0  0  0
    6.0248    0.3610    3.7499 H   0  0  0  1  0  0  0  0  0  0  0  0
    5.6408    0.1699    0.9730 H   0  0  0  1  0  0  0  0  0  0  0  0
    6.6035   -1.5055    2.6059 H   0  0  0  1  0  0  0  0  0  0  0  0
    5.6863   -2.0843    1.2355 H   0  0  0  1  0  0  0  0  0  0  0  0
    3.6667   -3.6463    1.7626 H   0  0  0  1  0  0  0  0  0  0  0  0
    2.5159   -4.5171    3.8584 H   0  0  0  1  0  0  0  0  0  0  0  0
    2.7151   -4.0661    6.6395 H   0  0  0  1  0  0  0  0  0  0  0  0
    3.8862   -2.6550    8.2669 H   0  0  0  1  0  0  0  0  0  0  0  0
    6.0502   -0.7304    5.1725 H   0  0  0  1  0  0  0  0  0  0  0  0
    6.8944    2.5064    4.4744 H   0  0  0  1  0  0  0  0  0  0  0  0
    5.2181    2.6158    4.9546 H   0  0  0  1  0  0  0  0  0  0  0  0
    5.9340    3.8816    3.9855 H   0  0  0  1  0  0  0  0  0  0  0  0
    3.4431    0.6329    3.5626 H   0  0  0  1  0  0  0  0  0  0  0  0
    1.0769   -0.2756    2.2354 H   0  0  0  1  0  0  0  0  0  0  0  0
    1.2668    1.4585    2.1391 H   0  0  0  1  0  0  0  0  0  0  0  0
    1.1463    0.6777    3.6980 H   0  0  0  1  0  0  0  0  0  0  0  0
  1  3  1  0  0  0  0
  1 14  2  0  0  0  0
  1 19  1  0  0  0  0
  2  3  1  0  0  0  0
  2 16  1  0  0  0  0
  2 21  1  0  0  0  0
  3  4  1  0  0  0  0
  3 22  1  0  0  0  0
  4  5  1  0  0  0  0
  4 23  1  0  0  0  0
  4 24  1  0  0  0  0
  5  6  4  0  0  0  0
  5 13  4  0  0  0  0
  6  7  4  0  0  0  0
  6 25  1  0  0  0  0
  7  8  4  0  0  0  0
  7 26  1  0  0  0  0
  8  9  4  0  0  0  0
  8 13  4  0  0  0  0
  9 10  4  0  0  0  0
  9 27  1  0  0  0  0
 10 11  4  0  0  0  0
 10 28  1  0  0  0  0
 11 12  4  0  0  0  0
 11 15  1  0  0  0  0
 12 13  4  0  0  0  0
 12 29  1  0  0  0  0
 16 17  2  0  0  0  0
 16 18  1  0  0  0  0
 18 30  1  0  0  0  0
 18 31  1  0  0  0  0
 18 32  1  0  0  0  0
 19 20  1  0  0  0  0
 19 33  1  0  0  0  0
 20 34  1  0  0  0  0
 20 35  1  0  0  0  0
 20 36  1  0  0  0  0
M  END
> <ConfClashScore>
0 

> <ConfOneFourInteractionScore>
-0.949394 

> <ConfScore>
0.621957 

> <ConfScorePBest>
0.00757948 

> <ConfTolerance>
0.866993 

$$$$
5FW.qm
 OpenBabel09182216093D

 36 37  0  0  0  0  0  0  0  0999 V2000
    7.9687   -1.1127    1.3769 C   0  0  0  1  0  0  0  0  0  0  0  0
    7.5802   -2.3877    3.4233 N   0  0  0  1  0  0  0  0  0  0  0  0
    7.0611   -2.1010    2.0907 C   0  0  0  1  0  0  0  0  0  0  0  0
    5.6300   -1.5599    2.1660 C   0  0  0  1  0  0  0  0  0  0  0  0
    4.7475   -2.3536    3.0919 C   0  0  0  1  0  0  0  0  0  0  0  0
    3.8453   -3.3289    2.7368 C   0  0  0  1  0  0  0  0  0  0  0  0
    3.2109   -3.8263    3.8566 N   0  0  0  1  0  0  0  0  0  0  0  0
    3.7161   -3.1909    4.9752 C   0  0  0  1  0  0  0  0  0  0  0  0
    3.4156   -3.3627    6.3299 C   0  0  0  1  0  0  0  0  0  0  0  0
    4.0847   -2.5615    7.2504 C   0  0  0  1  0  0  0  0  0  0  0  0
    5.0297   -1.6260    6.7984 C   0  0  0  1  0  0  0  0  0  0  0  0
    5.3470   -1.4380    5.4666 C   0  0  0  1  0  0  0  0  0  0  0  0
    4.6798   -2.2432    4.5241 C   0  0  0  1  0  0  0  0  0  0  0  0
    8.7782   -0.4319    2.0052 O   0  0  0  1  0  0  0  0  0  0  0  0
    5.6626   -0.8689    7.7151 F   0  0  0  1  0  0  0  0  0  0  0  0
    7.2974   -3.5272    4.0727 C   0  0  0  1  0  0  0  0  0  0  0  0
    6.5521   -4.3900    3.6160 O   0  0  0  1  0  0  0  0  0  0  0  0
    7.9629   -3.6966    5.4325 C   0  0  0  1  0  0  0  0  0  0  0  0
    7.8606   -1.0064    0.0494 N   0  0  0  1  0  0  0  0  0  0  0  0
    8.7081   -0.1170   -0.7307 C   0  0  0  1  0  0  0  0  0  0  0  0
    8.1556   -1.7251    3.8594 H   0  0  0  1  0  0  0  0  0  0  0  0
    7.0427   -3.0074    1.5224 H   0  0  0  1  0  0  0  0  0  0  0  0
    5.2042   -1.5853    1.1847 H   0  0  0  1  0  0  0  0  0  0  0  0
    5.6661   -0.5486    2.5136 H   0  0  0  1  0  0  0  0  0  0  0  0
    3.6666   -3.6464    1.7627 H   0  0  0  1  0  0  0  0  0  0  0  0
    2.5158   -4.5171    3.8585 H   0  0  0  1  0  0  0  0  0  0  0  0
    2.7150   -4.0661    6.6395 H   0  0  0  1  0  0  0  0  0  0  0  0
    3.8862   -2.6550    8.2670 H   0  0  0  1  0  0  0  0  0  0  0  0
    6.0502   -0.7304    5.1725 H   0  0  0  1  0  0  0  0  0  0  0  0
    8.2803   -2.7417    5.7962 H   0  0  0  1  0  0  0  0  0  0  0  0
    8.8113   -4.3414    5.3362 H   0  0  0  1  0  0  0  0  0  0  0  0
    7.2643   -4.1257    6.1201 H   0  0  0  1  0  0  0  0  0  0  0  0
    7.1872   -1.5460   -0.4150 H   0  0  0  1  0  0  0  0  0  0  0  0
    8.8374   -0.5185   -1.7141 H   0  0  0  1  0  0  0  0  0  0  0  0
    9.6621   -0.0255   -0.2549 H   0  0  0  1  0  0  0  0  0  0  0  0
    8.2480    0.8467   -0.7968 H   0  0  0  1  0  0  0  0  0  0  0  0
  1  3  1  0  0  0  0
  1 14  2  0  0  0  0
  1 19  1  0  0  0  0
  2  3  1  0  0  0  0
  2 16  1  0  0  0  0
  2 21  1  0  0  0  0
  3  4  1  0  0  0  0
  3 22  1  0  0  0  0
  4  5  1  0  0  0  0
  4 23  1  0  0  0  0
  4 24  1  0  0  0  0
  5  6  4  0  0  0  0
  5 13  4  0  0  0  0
  6  7  4  0  0  0  0
  6 25  1  0  0  0  0
  7  8  4  0  0  0  0
  7 26  1  0  0  0  0
  8  9  4  0  0  0  0
  8 13  4  0  0  0  0
  9 10  4  0  0  0  0
  9 27  1  0  0  0  0
 10 11  4  0  0  0  0
 10 28  1  0  0  0  0
 11 12  4  0  0  0  0
 11 15  1  0  0  0  0
 12 13  4  0  0  0  0
 12 29  1  0  0  0  0
 16 17  2  0  0  0  0
 16 18  1  0  0  0  0
 18 30  1  0  0  0  0
 18 31  1  0  0  0  0
 18 32  1  0  0  0  0
 19 20  1  0  0  0  0
 19 33  1  0  0  0  0
 20 34  1  0  0  0  0
 20 35  1  0  0  0  0
 20 36  1  0  0  0  0
M  END
> <ConfClashScore>
0 

> <ConfOneFourInteractionScore>
-0.978873 

> <ConfScore>
0.630748 

> <ConfScorePBest>
0.00747648 

> <ConfTolerance>
1.01538 

$$$$
5FW.qm
 OpenBabel09182216093D

 36 37  0  0  0  0  0  0  0  0999 V2000
    7.8396   -2.0249    3.2335 C   0  0  0  1  0  0  0  0  0  0  0  0
    6.9480   -3.4690    1.4261 N   0  0  0  1  0  0  0  0  0  0  0  0
    7.0205   -2.1087    1.9603 C   0  0  0  1  0  0  0  0  0  0  0  0
    5.6198   -1.5571    2.1704 C   0  0  0  1  0  0  0  0  0  0  0  0
    4.7430   -2.3580    3.0955 C   0  0  0  1  0  0  0  0  0  0  0  0
    3.8458   -3.3232    2.7448 C   0  0  0  1  0  0  0  0  0  0  0  0
    3.2222   -3.8184    3.8613 N   0  0  0  1  0  0  0  0  0  0  0  0
    3.7241   -3.1911    4.9686 C   0  0  0  1  0  0  0  0  0  0  0  0
    3.4215   -3.3552    6.3232 C   0  0  0  1  0  0  0  0  0  0  0  0
    4.0916   -2.5579    7.2254 C   0  0  0  1  0  0  0  0  0  0  0  0
    5.0305   -1.6199    6.8076 C   0  0  0  1  0  0  0  0  0  0  0  0
    5.3340   -1.4612    5.4735 C   0  0  0  1  0  0  0  0  0  0  0  0
    4.6811   -2.2608    4.5291 C   0  0  0  1  0  0  0  0  0  0  0  0
    7.7833   -2.9081    4.0882 O   0  0  0  1  0  0  0  0  0  0  0  0
    5.6532   -0.8537    7.7236 F   0  0  0  1  0  0  0  0  0  0  0  0
    8.0492   -4.1656    1.0766 C   0  0  0  1  0  0  0  0  0  0  0  0
    9.1687   -3.6680    1.1629 O   0  0  0  1  0  0  0  0  0  0  0  0
    7.8654   -5.5840    0.5728 C   0  0  0  1  0  0  0  0  0  0  0  0
    8.6123   -0.9419    3.3564 N   0  0  0  1  0  0  0  0  0  0  0  0
    9.5274   -0.7625    4.4736 C   0  0  0  1  0  0  0  0  0  0  0  0
    6.0689   -3.8886    1.3185 H   0  0  0  1  0  0  0  0  0  0  0  0
    7.5004   -1.4911    1.2301 H   0  0  0  1  0  0  0  0  0  0  0  0
    5.1371   -1.5100    1.2166 H   0  0  0  1  0  0  0  0  0  0  0  0
    5.7108   -0.5703    2.5738 H   0  0  0  1  0  0  0  0  0  0  0  0
    3.6612   -3.6384    1.7710 H   0  0  0  1  0  0  0  0  0  0  0  0
    2.5284   -4.5105    3.8653 H   0  0  0  1  0  0  0  0  0  0  0  0
    2.7172   -4.0526    6.6383 H   0  0  0  1  0  0  0  0  0  0  0  0
    3.8913   -2.6596    8.2408 H   0  0  0  1  0  0  0  0  0  0  0  0
    6.0382   -0.7575    5.1725 H   0  0  0  1  0  0  0  0  0  0  0  0
    7.1036   -5.6003   -0.1783 H   0  0  0  1  0  0  0  0  0  0  0  0
    7.5775   -6.2166    1.3863 H   0  0  0  1  0  0  0  0  0  0  0  0
    8.7855   -5.9358    0.1550 H   0  0  0  1  0  0  0  0  0  0  0  0
    8.5609   -0.2440    2.6703 H   0  0  0  1  0  0  0  0  0  0  0  0
   10.2545   -1.5475    4.4693 H   0  0  0  1  0  0  0  0  0  0  0  0
    8.9787   -0.7899    5.3918 H   0  0  0  1  0  0  0  0  0  0  0  0
   10.0219    0.1819    4.3812 H   0  0  0  1  0  0  0  0  0  0  0  0
  1  3  1  0  0  0  0
  1 14  2  0  0  0  0
  1 19  1  0  0  0  0
  2  3  1  0  0  0  0
  2 16  1  0  0  0  0
  2 21  1  0  0  0  0
  3  4  1  0  0  0  0
  3 22  1  0  0  0  0
  4  5  1  0  0  0  0
  4 23  1  0  0  0  0
  4 24  1  0  0  0  0
  5  6  4  0  0  0  0
  5 13  4  0  0  0  0
  6  7  4  0  0  0  0
  6 25  1  0  0  0  0
  7  8  4  0  0  0  0
  7 26  1  0  0  0  0
  8  9  4  0  0  0  0
  8 13  4  0  0  0  0
  9 10  4  0  0  0  0
  9 27  1  0  0  0  0
 10 11  4  0  0  0  0
 10 28  1  0  0  0  0
 11 12  4  0  0  0  0
 11 15  1  0  0  0  0
 12 13  4  0  0  0  0
 12 29  1  0  0  0  0
 16 17  2  0  0  0  0
 16 18  1  0  0  0  0
 18 30  1  0  0  0  0
 18 31  1  0  0  0  0
 18 32  1  0  0  0  0
 19 20  1  0  0  0  0
 19 33  1  0  0  0  0
 20 34  1  0  0  0  0
 20 35  1  0  0  0  0
 20 36  1  0  0  0  0
M  END
> <ConfClashScore>
0 

> <ConfOneFourInteractionScore>
-0.976093 

> <ConfScore>
0.631493 

> <ConfScorePBest>
0.00737347 

> <ConfTolerance>
0.375943 

$$$$
5FW.qm
 OpenBabel09182216093D

 36 37  0  0  0  0  0  0  0  0999 V2000
    7.7573   -1.4392    3.4778 C   0  0  0  1  0  0  0  0  0  0  0  0
    7.2247    0.3383    1.9540 N   0  0  0  1  0  0  0  0  0  0  0  0
    6.6185   -0.6371    2.8533 C   0  0  0  1  0  0  0  0  0  0  0  0
    5.6198   -1.5571    2.1704 C   0  0  0  1  0  0  0  0  0  0  0  0
    4.7430   -2.3580    3.0955 C   0  0  0  1  0  0  0  0  0  0  0  0
    3.8458   -3.3232    2.7448 C   0  0  0  1  0  0  0  0  0  0  0  0
    3.2222   -3.8184    3.8613 N   0  0  0  1  0  0  0  0  0  0  0  0
    3.7241   -3.1911    4.9686 C   0  0  0  1  0  0  0  0  0  0  0  0
    3.4215   -3.3552    6.3232 C   0  0  0  1  0  0  0  0  0  0  0  0
    4.0916   -2.5579    7.2254 C   0  0  0  1  0  0  0  0  0  0  0  0
    5.0305   -1.6199    6.8076 C   0  0  0  1  0  0  0  0  0  0  0  0
    5.3340   -1.4612    5.4735 C   0  0  0  1  0  0  0  0  0  0  0  0
    4.6811   -2.2608    4.5291 C   0  0  0  1  0  0  0  0  0  0  0  0
    7.7782   -1.6860    4.6808 O   0  0  0  1  0  0  0  0  0  0  0  0
    5.6532   -0.8537    7.7236 F   0  0  0  1  0  0  0  0  0  0  0  0
    8.1741    1.2091    2.2999 C   0  0  0  1  0  0  0  0  0  0  0  0
    8.5751    1.3389    3.4558 O   0  0  0  1  0  0  0  0  0  0  0  0
    8.7432    2.0461    1.1709 C   0  0  0  1  0  0  0  0  0  0  0  0
    8.7160   -1.8472    2.6313 N   0  0  0  1  0  0  0  0  0  0  0  0
    9.8949   -2.5715    3.0826 C   0  0  0  1  0  0  0  0  0  0  0  0
    6.9109    0.3551    1.0258 H   0  0  0  1  0  0  0  0  0  0  0  0
    6.1084   -0.1177    3.6374 H   0  0  0  1  0  0  0  0  0  0  0  0
    6.1677   -2.2431    1.5587 H   0  0  0  1  0  0  0  0  0  0  0  0
    4.9858   -0.9558    1.5529 H   0  0  0  1  0  0  0  0  0  0  0  0
    3.6612   -3.6384    1.7710 H   0  0  0  1  0  0  0  0  0  0  0  0
    2.5284   -4.5105    3.8653 H   0  0  0  1  0  0  0  0  0  0  0  0
    2.7172   -4.0526    6.6383 H   0  0  0  1  0  0  0  0  0  0  0  0
    3.8913   -2.6596    8.2408 H   0  0  0  1  0  0  0  0  0  0  0  0
    6.0382   -0.7575    5.1725 H   0  0  0  1  0  0  0  0  0  0  0  0
    7.9987    2.7320    0.8244 H   0  0  0  1  0  0  0  0  0  0  0  0
    9.0395    1.4055    0.3667 H   0  0  0  1  0  0  0  0  0  0  0  0
    9.5931    2.5914    1.5248 H   0  0  0  1  0  0  0  0  0  0  0  0
    8.6186   -1.6505    1.6762 H   0  0  0  1  0  0  0  0  0  0  0  0
    9.6133   -3.2794    3.8338 H   0  0  0  1  0  0  0  0  0  0  0  0
   10.6028   -1.8809    3.4911 H   0  0  0  1  0  0  0  0  0  0  0  0
   10.3353   -3.0866    2.2546 H   0  0  0  1  0  0  0  0  0  0  0  0
  1  3  1  0  0  0  0
  1 14  2  0  0  0  0
  1 19  1  0  0  0  0
  2  3  1  0  0  0  0
  2 16  1  0  0  0  0
  2 21  1  0  0  0  0
  3  4  1  0  0  0  0
  3 22  1  0  0  0  0
  4  5  1  0  0  0  0
  4 23  1  0  0  0  0
  4 24  1  0  0  0  0
  5  6  4  0  0  0  0
  5 13  4  0  0  0  0
  6  7  4  0  0  0  0
  6 25  1  0  0  0  0
  7  8  4  0  0  0  0
  7 26  1  0  0  0  0
  8  9  4  0  0  0  0
  8 13  4  0  0  0  0
  9 10  4  0  0  0  0
  9 27  1  0  0  0  0
 10 11  4  0  0  0  0
 10 28  1  0  0  0  0
 11 12  4  0  0  0  0
 11 15  1  0  0  0  0
 12 13  4  0  0  0  0
 12 29  1  0  0  0  0
 16 17  2  0  0  0  0
 16 18  1  0  0  0  0
 18 30  1  0  0  0  0
 18 31  1  0  0  0  0
 18 32  1  0  0  0  0
 19 20  1  0  0  0  0
 19 33  1  0  0  0  0
 20 34  1  0  0  0  0
 20 35  1  0  0  0  0
 20 36  1  0  0  0  0
M  END
> <ConfClashScore>
0.00098405 

> <ConfOneFourInteractionScore>
-0.952877 

> <ConfScore>
0.633967 

> <ConfScorePBest>
0.00727047 

> <ConfTolerance>
1.11498 

$$$$
5FW.qm
 OpenBabel09182216093D

 36 37  0  0  0  0  0  0  0  0999 V2000
    7.3780   -2.4448    3.6486 C   0  0  0  1  0  0  0  0  0  0  0  0
    7.2258   -3.2377    1.3746 N   0  0  0  1  0  0  0  0  0  0  0  0
    7.0588   -2.0625    2.2164 C   0  0  0  1  0  0  0  0  0  0  0  0
    5.6198   -1.5571    2.1704 C   0  0  0  1  0  0  0  0  0  0  0  0
    4.7430   -2.3580    3.0955 C   0  0  0  1  0  0  0  0  0  0  0  0
    3.8458   -3.3232    2.7448 C   0  0  0  1  0  0  0  0  0  0  0  0
    3.2222   -3.8184    3.8613 N   0  0  0  1  0  0  0  0  0  0  0  0
    3.7241   -3.1911    4.9686 C   0  0  0  1  0  0  0  0  0  0  0  0
    3.4215   -3.3552    6.3232 C   0  0  0  1  0  0  0  0  0  0  0  0
    4.0916   -2.5579    7.2254 C   0  0  0  1  0  0  0  0  0  0  0  0
    5.0305   -1.6199    6.8076 C   0  0  0  1  0  0  0  0  0  0  0  0
    5.3340   -1.4612    5.4735 C   0  0  0  1  0  0  0  0  0  0  0  0
    4.6811   -2.2608    4.5291 C   0  0  0  1  0  0  0  0  0  0  0  0
    7.8570   -1.6346    4.4409 O   0  0  0  1  0  0  0  0  0  0  0  0
    5.6532   -0.8537    7.7236 F   0  0  0  1  0  0  0  0  0  0  0  0
    8.4105   -3.8654    1.3214 C   0  0  0  1  0  0  0  0  0  0  0  0
    9.4072   -3.4747    1.9267 O   0  0  0  1  0  0  0  0  0  0  0  0
    8.5139   -5.0675    0.3742 C   0  0  0  1  0  0  0  0  0  0  0  0
    7.0889   -3.7222    3.9432 N   0  0  0  1  0  0  0  0  0  0  0  0
    7.2595   -4.2154    5.3018 C   0  0  0  1  0  0  0  0  0  0  0  0
    6.4715   -3.5713    0.8453 H   0  0  0  1  0  0  0  0  0  0  0  0
    7.7175   -1.2809    1.8999 H   0  0  0  1  0  0  0  0  0  0  0  0
    5.2486   -1.6460    1.1708 H   0  0  0  1  0  0  0  0  0  0  0  0
    5.5990   -0.5299    2.4691 H   0  0  0  1  0  0  0  0  0  0  0  0
    3.6612   -3.6384    1.7710 H   0  0  0  1  0  0  0  0  0  0  0  0
    2.5284   -4.5105    3.8653 H   0  0  0  1  0  0  0  0  0  0  0  0
    2.7172   -4.0526    6.6383 H   0  0  0  1  0  0  0  0  0  0  0  0
    3.8913   -2.6596    8.2408 H   0  0  0  1  0  0  0  0  0  0  0  0
    6.0382   -0.7575    5.1725 H   0  0  0  1  0  0  0  0  0  0  0  0
    8.2025   -4.7767   -0.6073 H   0  0  0  1  0  0  0  0  0  0  0  0
    7.8837   -5.8561    0.7290 H   0  0  0  1  0  0  0  0  0  0  0  0
    9.5276   -5.4083    0.3402 H   0  0  0  1  0  0  0  0  0  0  0  0
    6.7622   -4.3239    3.2420 H   0  0  0  1  0  0  0  0  0  0  0  0
    7.2039   -5.2839    5.3034 H   0  0  0  1  0  0  0  0  0  0  0  0
    6.4863   -3.8173    5.9252 H   0  0  0  1  0  0  0  0  0  0  0  0
    8.2136   -3.9075    5.6755 H   0  0  0  1  0  0  0  0  0  0  0  0
  1  3  1  0  0  0  0
  1 14  2  0  0  0  0
  1 19  1  0  0  0  0
  2  3  1  0  0  0  0
  2 16  1  0  0  0  0
  2 21  1  0  0  0  0
  3  4  1  0  0  0  0
  3 22  1  0  0  0  0
  4  5  1  0  0  0  0
  4 23  1  0  0  0  0
  4 24  1  0  0  0  0
  5  6  4  0  0  0  0
  5 13  4  0  0  0  0
  6  7  4  0  0  0  0
  6 25  1  0  0  0  0
  7  8  4  0  0  0  0
  7 26  1  0  0  0  0
  8  9  4  0  0  0  0
  8 13  4  0  0  0  0
  9 10  4  0  0  0  0
  9 27  1  0  0  0  0
 10 11  4  0  0  0  0
 10 28  1  0  0  0  0
 11 12  4  0  0  0  0
 11 15  1  0  0  0  0
 12 13  4  0  0  0  0
 12 29  1  0  0  0  0
 16 17  2  0  0  0  0
 16 18  1  0  0  0  0
 18 30  1  0  0  0  0
 18 31  1  0  0  0  0
 18 32  1  0  0  0  0
 19 20  1  0  0  0  0
 19 33  1  0  0  0  0
 20 34  1  0  0  0  0
 20 35  1  0  0  0  0
 20 36  1  0  0  0  0
M  END
> <ConfClashScore>
0 

> <ConfOneFourInteractionScore>
-0.942345 

> <ConfScore>
0.636553 

> <ConfScorePBest>
0.00716747 

> <ConfTolerance>
0.959947 

$$$$
5FW.qm
 OpenBabel09182216093D

 36 37  0  0  0  0  0  0  0  0999 V2000
    3.9351   -0.1772    0.9323 C   0  0  0  1  0  0  0  0  0  0  0  0
    5.0790    0.6879    2.9674 N   0  0  0  1  0  0  0  0  0  0  0  0
    5.1851   -0.1616    1.7905 C   0  0  0  1  0  0  0  0  0  0  0  0
    5.6350   -1.5554    2.1603 C   0  0  0  1  0  0  0  0  0  0  0  0
    4.7470   -2.3541    3.0922 C   0  0  0  1  0  0  0  0  0  0  0  0
    3.8447   -3.3294    2.7372 C   0  0  0  1  0  0  0  0  0  0  0  0
    3.2105   -3.8267    3.8571 N   0  0  0  1  0  0  0  0  0  0  0  0
    3.7157   -3.1913    4.9756 C   0  0  0  1  0  0  0  0  0  0  0  0
    3.4154   -3.3629    6.3304 C   0  0  0  1  0  0  0  0  0  0  0  0
    4.0846   -2.5616    7.2508 C   0  0  0  1  0  0  0  0  0  0  0  0
    5.0295   -1.6262    6.7986 C   0  0  0  1  0  0  0  0  0  0  0  0
    5.3467   -1.4383    5.4668 C   0  0  0  1  0  0  0  0  0  0  0  0
    4.6794   -2.2435    4.5244 C   0  0  0  1  0  0  0  0  0  0  0  0
    2.8229   -0.1760    1.4336 O   0  0  0  1  0  0  0  0  0  0  0  0
    5.6625   -0.8690    7.7152 F   0  0  0  1  0  0  0  0  0  0  0  0
    4.8867    2.0050    2.8805 C   0  0  0  1  0  0  0  0  0  0  0  0
    4.7886    2.5983    1.8072 O   0  0  0  1  0  0  0  0  0  0  0  0
    4.7939    2.7456    4.2003 C   0  0  0  1  0  0  0  0  0  0  0  0
    4.1389   -0.1920   -0.3945 N   0  0  0  1  0  0  0  0  0  0  0  0
    3.0410   -0.1800   -1.3498 C   0  0  0  1  0  0  0  0  0  0  0  0
    5.1513    0.2780    3.8546 H   0  0  0  1  0  0  0  0  0  0  0  0
    5.9618    0.2487    1.1795 H   0  0  0  1  0  0  0  0  0  0  0  0
    6.5937   -1.4690    2.6275 H   0  0  0  1  0  0  0  0  0  0  0  0
    5.7293   -2.1130    1.2519 H   0  0  0  1  0  0  0  0  0  0  0  0
    3.6659   -3.6469    1.7632 H   0  0  0  1  0  0  0  0  0  0  0  0
    2.5154   -4.5175    3.8591 H   0  0  0  1  0  0  0  0  0  0  0  0
    2.7148   -4.0663    6.6402 H   0  0  0  1  0  0  0  0  0  0  0  0
    3.8861   -2.6551    8.2674 H   0  0  0  1  0  0  0  0  0  0  0  0
    6.0498   -0.7307    5.1726 H   0  0  0  1  0  0  0  0  0  0  0  0
    5.4233    2.2689    4.9225 H   0  0  0  1  0  0  0  0  0  0  0  0
    3.7814    2.7325    4.5460 H   0  0  0  1  0  0  0  0  0  0  0  0
    5.1116    3.7582    4.0639 H   0  0  0  1  0  0  0  0  0  0  0  0
    5.0589   -0.2116   -0.7316 H   0  0  0  1  0  0  0  0  0  0  0  0
    2.2079    0.3438   -0.9298 H   0  0  0  1  0  0  0  0  0  0  0  0
    2.7532   -1.1857   -1.5746 H   0  0  0  1  0  0  0  0  0  0  0  0
    3.3549    0.3108   -2.2473 H   0  0  0  1  0  0  0  0  0  0  0  0
  1  3  1  0  0  0  0
  1 14  2  0  0  0  0
  1 19  1  0  0  0  0
  2  3  1  0  0  0  0
  2 16  1  0  0  0  0
  2 21  1  0  0  0  0
  3  4  1  0  0  0  0
  3 22  1  0  0  0  0
  4  5  1  0  0  0  0
  4 23  1  0  0  0  0
  4 24  1  0  0  0  0
  5  6  4  0  0  0  0
  5 13  4  0  0  0  0
  6  7  4  0  0  0  0
  6 25  1  0  0  0  0
  7  8  4  0  0  0  0
  7 26  1  0  0  0  0
  8  9  4  0  0  0  0
  8 13  4  0  0  0  0
  9 10  4  0  0  0  0
  9 27  1  0  0  0  0
 10 11  4  0  0  0  0
 10 28  1  0  0  0  0
 11 12  4  0  0  0  0
 11 15  1  0  0  0  0
 12 13  4  0  0  0  0
 12 29  1  0  0  0  0
 16 17  2  0  0  0  0
 16 18  1  0  0  0  0
 18 30  1  0  0  0  0
 18 31  1  0  0  0  0
 18 32  1  0  0  0  0
 19 20  1  0  0  0  0
 19 33  1  0  0  0  0
 20 34  1  0  0  0  0
 20 35  1  0  0  0  0
 20 36  1  0  0  0  0
M  END
> <ConfClashScore>
0 

> <ConfOneFourInteractionScore>
-0.976093 

> <ConfScore>
0.64065 

> <ConfScorePBest>
0.00706447 

> <ConfTolerance>
0.939932 

$$$$
5FW.qm
 OpenBabel09182216093D

 36 37  0  0  0  0  0  0  0  0999 V2000
    7.4710    0.1357    1.9876 C   0  0  0  1  0  0  0  0  0  0  0  0
    5.5008    0.5400    3.4233 N   0  0  0  1  0  0  0  0  0  0  0  0
    6.4103   -0.4612    2.8919 C   0  0  0  1  0  0  0  0  0  0  0  0
    5.6198   -1.5571    2.1704 C   0  0  0  1  0  0  0  0  0  0  0  0
    4.7430   -2.3580    3.0955 C   0  0  0  1  0  0  0  0  0  0  0  0
    3.8458   -3.3232    2.7448 C   0  0  0  1  0  0  0  0  0  0  0  0
    3.2222   -3.8184    3.8613 N   0  0  0  1  0  0  0  0  0  0  0  0
    3.7241   -3.1911    4.9686 C   0  0  0  1  0  0  0  0  0  0  0  0
    3.4215   -3.3552    6.3232 C   0  0  0  1  0  0  0  0  0  0  0  0
    4.0916   -2.5579    7.2254 C   0  0  0  1  0  0  0  0  0  0  0  0
    5.0305   -1.6199    6.8076 C   0  0  0  1  0  0  0  0  0  0  0  0
    5.3340   -1.4612    5.4735 C   0  0  0  1  0  0  0  0  0  0  0  0
    4.6811   -2.2608    4.5291 C   0  0  0  1  0  0  0  0  0  0  0  0
    7.1886    0.9931    1.1517 O   0  0  0  1  0  0  0  0  0  0  0  0
    5.6532   -0.8537    7.7236 F   0  0  0  1  0  0  0  0  0  0  0  0
    5.9262    1.5748    4.1536 C   0  0  0  1  0  0  0  0  0  0  0  0
    7.1177    1.8200    4.3376 O   0  0  0  1  0  0  0  0  0  0  0  0
    4.8413    2.4471    4.7547 C   0  0  0  1  0  0  0  0  0  0  0  0
    8.7113   -0.3292    2.1623 N   0  0  0  1  0  0  0  0  0  0  0  0
    9.7977   -0.0082    1.2488 C   0  0  0  1  0  0  0  0  0  0  0  0
    4.5421    0.4531    3.2397 H   0  0  0  1  0  0  0  0  0  0  0  0
    6.9147   -0.9239    3.7143 H   0  0  0  1  0  0  0  0  0  0  0  0
    6.3126   -2.2216    1.6976 H   0  0  0  1  0  0  0  0  0  0  0  0
    5.0015   -1.0981    1.4275 H   0  0  0  1  0  0  0  0  0  0  0  0
    3.6612   -3.6384    1.7710 H   0  0  0  1  0  0  0  0  0  0  0  0
    2.5284   -4.5105    3.8653 H   0  0  0  1  0  0  0  0  0  0  0  0
    2.7172   -4.0526    6.6383 H   0  0  0  1  0  0  0  0  0  0  0  0
    3.8913   -2.6596    8.2408 H   0  0  0  1  0  0  0  0  0  0  0  0
    6.0382   -0.7575    5.1725 H   0  0  0  1  0  0  0  0  0  0  0  0
    4.2311    1.8589    5.4078 H   0  0  0  1  0  0  0  0  0  0  0  0
    4.2362    2.8537    3.9715 H   0  0  0  1  0  0  0  0  0  0  0  0
    5.2911    3.2442    5.3089 H   0  0  0  1  0  0  0  0  0  0  0  0
    8.8959   -0.9065    2.9325 H   0  0  0  1  0  0  0  0  0  0  0  0
    9.5388   -0.3257    0.2604 H   0  0  0  1  0  0  0  0  0  0  0  0
   10.6881   -0.5115    1.5631 H   0  0  0  1  0  0  0  0  0  0  0  0
    9.9650    1.0486    1.2513 H   0  0  0  1  0  0  0  0  0  0  0  0
  1  3  1  0  0  0  0
  1 14  2  0  0  0  0
  1 19  1  0  0  0  0
  2  3  1  0  0  0  0
  2 16  1  0  0  0  0
  2 21  1  0  0  0  0
  3  4  1  0  0  0  0
  3 22  1  0  0  0  0
  4  5  1  0  0  0  0
  4 23  1  0  0  0  0
  4 24  1  0  0  0  0
  5  6  4  0  0  0  0
  5 13  4  0  0  0  0
  6  7  4  0  0  0  0
  6 25  1  0  0  0  0
  7  8  4  0  0  0  0
  7 26  1  0  0  0  0
  8  9  4  0  0  0  0
  8 13  4  0  0  0  0
  9 10  4  0  0  0  0
  9 27  1  0  0  0  0
 10 11  4  0  0  0  0
 10 28  1  0  0  0  0
 11 12  4  0  0  0  0
 11 15  1  0  0  0  0
 12 13  4  0  0  0  0
 12 29  1  0  0  0  0
 16 17  2  0  0  0  0
 16 18  1  0  0  0  0
 18 30  1  0  0  0  0
 18 31  1  0  0  0  0
 18 32  1  0  0  0  0
 19 20  1  0  0  0  0
 19 33  1  0  0  0  0
 20 34  1  0  0  0  0
 20 35  1  0  0  0  0
 20 36  1  0  0  0  0
M  END
> <ConfClashScore>
0 

> <ConfOneFourInteractionScore>
-0.96681 

> <ConfScore>
0.643741 

> <ConfScorePBest>
0.00696147 

> <ConfTolerance>
1.19103 

$$$$
5FW.qm
 OpenBabel09182216093D

 36 37  0  0  0  0  0  0  0  0999 V2000
    3.8870   -1.4569    0.3263 C   0  0  0  1  0  0  0  0  0  0  0  0
    6.2736   -1.0162   -0.1649 N   0  0  0  1  0  0  0  0  0  0  0  0
    5.3429   -1.7424    0.6874 C   0  0  0  1  0  0  0  0  0  0  0  0
    5.6198   -1.5571    2.1704 C   0  0  0  1  0  0  0  0  0  0  0  0
    4.7430   -2.3580    3.0955 C   0  0  0  1  0  0  0  0  0  0  0  0
    3.8458   -3.3232    2.7448 C   0  0  0  1  0  0  0  0  0  0  0  0
    3.2222   -3.8184    3.8613 N   0  0  0  1  0  0  0  0  0  0  0  0
    3.7241   -3.1911    4.9686 C   0  0  0  1  0  0  0  0  0  0  0  0
    3.4215   -3.3552    6.3232 C   0  0  0  1  0  0  0  0  0  0  0  0
    4.0916   -2.5579    7.2254 C   0  0  0  1  0  0  0  0  0  0  0  0
    5.0305   -1.6199    6.8076 C   0  0  0  1  0  0  0  0  0  0  0  0
    5.3340   -1.4612    5.4735 C   0  0  0  1  0  0  0  0  0  0  0  0
    4.6811   -2.2608    4.5291 C   0  0  0  1  0  0  0  0  0  0  0  0
    3.4095   -0.3426    0.4348 O   0  0  0  1  0  0  0  0  0  0  0  0
    5.6532   -0.8537    7.7236 F   0  0  0  1  0  0  0  0  0  0  0  0
    7.1347   -1.5825   -1.0117 C   0  0  0  1  0  0  0  0  0  0  0  0
    7.3207   -2.7975   -1.0653 O   0  0  0  1  0  0  0  0  0  0  0  0
    7.8863   -0.6306   -1.9217 C   0  0  0  1  0  0  0  0  0  0  0  0
    3.2217   -2.5292   -0.1060 N   0  0  0  1  0  0  0  0  0  0  0  0
    1.7970   -2.5627   -0.4012 C   0  0  0  1  0  0  0  0  0  0  0  0
    6.2669   -0.0376   -0.1124 H   0  0  0  1  0  0  0  0  0  0  0  0
    5.4945   -2.7831    0.4904 H   0  0  0  1  0  0  0  0  0  0  0  0
    5.4871   -0.5214    2.4041 H   0  0  0  1  0  0  0  0  0  0  0  0
    6.6360   -1.8373    2.3539 H   0  0  0  1  0  0  0  0  0  0  0  0
    3.6612   -3.6384    1.7710 H   0  0  0  1  0  0  0  0  0  0  0  0
    2.5284   -4.5105    3.8653 H   0  0  0  1  0  0  0  0  0  0  0  0
    2.7172   -4.0526    6.6383 H   0  0  0  1  0  0  0  0  0  0  0  0
    3.8913   -2.6596    8.2408 H   0  0  0  1  0  0  0  0  0  0  0  0
    6.0382   -0.7575    5.1725 H   0  0  0  1  0  0  0  0  0  0  0  0
    7.1980   -0.1585   -2.5913 H   0  0  0  1  0  0  0  0  0  0  0  0
    8.6142   -1.1761   -2.4851 H   0  0  0  1  0  0  0  0  0  0  0  0
    8.3768    0.1146   -1.3310 H   0  0  0  1  0  0  0  0  0  0  0  0
    3.7306   -3.3568   -0.2346 H   0  0  0  1  0  0  0  0  0  0  0  0
    1.5358   -3.5238   -0.7921 H   0  0  0  1  0  0  0  0  0  0  0  0
    1.5651   -1.8088   -1.1243 H   0  0  0  1  0  0  0  0  0  0  0  0
    1.2428   -2.3800    0.4956 H   0  0  0  1  0  0  0  0  0  0  0  0
  1  3  1  0  0  0  0
  1 14  2  0  0  0  0
  1 19  1  0  0  0  0
  2  3  1  0  0  0  0
  2 16  1  0  0  0  0
  2 21  1  0  0  0  0
  3  4  1  0  0  0  0
  3 22  1  0  0  0  0
  4  5  1  0  0  0  0
  4 23  1  0  0  0  0
  4 24  1  0  0  0  0
  5  6  4  0  0  0  0
  5 13  4  0  0  0  0
  6  7  4  0  0  0  0
  6 25  1  0  0  0  0
  7  8  4  0  0  0  0
  7 26  1  0  0  0  0
  8  9  4  0  0  0  0
  8 13  4  0  0  0  0
  9 10  4  0  0  0  0
  9 27  1  0  0  0  0
 10 11  4  0  0  0  0
 10 28  1  0  0  0  0
 11 12  4  0  0  0  0
 11 15  1  0  0  0  0
 12 13  4  0  0  0  0
 12 29  1  0  0  0  0
 16 17  2  0  0  0  0
 16 18  1  0  0  0  0
 18 30  1  0  0  0  0
 18 31  1  0  0  0  0
 18 32  1  0  0  0  0
 19 20  1  0  0  0  0
 19 33  1  0  0  0  0
 20 34  1  0  0  0  0
 20 35  1  0  0  0  0
 20 36  1  0  0  0  0
M  END
> <ConfClashScore>
0 

> <ConfOneFourInteractionScore>
-0.971506 

> <ConfScore>
0.651007 

> <ConfScorePBest>
0.00685847 

> <ConfTolerance>
0.537887 

$$$$
5FW.qm
 OpenBabel09182216093D

 36 37  0  0  0  0  0  0  0  0999 V2000
    7.7155   -2.6821    3.0179 C   0  0  0  1  0  0  0  0  0  0  0  0
    6.6833   -3.3208    0.8870 N   0  0  0  1  0  0  0  0  0  0  0  0
    6.9550   -2.2143    1.7924 C   0  0  0  1  0  0  0  0  0  0  0  0
    5.6357   -1.5548    2.1595 C   0  0  0  1  0  0  0  0  0  0  0  0
    4.7469   -2.3542    3.0922 C   0  0  0  1  0  0  0  0  0  0  0  0
    3.8447   -3.3295    2.7373 C   0  0  0  1  0  0  0  0  0  0  0  0
    3.2104   -3.8268    3.8572 N   0  0  0  1  0  0  0  0  0  0  0  0
    3.7157   -3.1913    4.9757 C   0  0  0  1  0  0  0  0  0  0  0  0
    3.4154   -3.3629    6.3304 C   0  0  0  1  0  0  0  0  0  0  0  0
    4.0846   -2.5617    7.2508 C   0  0  0  1  0  0  0  0  0  0  0  0
    5.0294   -1.6262    6.7987 C   0  0  0  1  0  0  0  0  0  0  0  0
    5.3466   -1.4383    5.4668 C   0  0  0  1  0  0  0  0  0  0  0  0
    4.6794   -2.2436    4.5244 C   0  0  0  1  0  0  0  0  0  0  0  0
    7.6154   -3.8365    3.4288 O   0  0  0  1  0  0  0  0  0  0  0  0
    5.6624   -0.8690    7.7152 F   0  0  0  1  0  0  0  0  0  0  0  0
    7.6606   -4.1141    0.4065 C   0  0  0  1  0  0  0  0  0  0  0  0
    8.8437   -4.0035    0.6831 O   0  0  0  1  0  0  0  0  0  0  0  0
    7.1622   -5.1918   -0.5366 C   0  0  0  1  0  0  0  0  0  0  0  0
    8.4894   -1.7628    3.6082 N   0  0  0  1  0  0  0  0  0  0  0  0
    9.3616   -2.0839    4.7280 C   0  0  0  1  0  0  0  0  0  0  0  0
    5.7574   -3.4949    0.6174 H   0  0  0  1  0  0  0  0  0  0  0  0
    7.5558   -1.4894    1.2841 H   0  0  0  1  0  0  0  0  0  0  0  0
    5.0916   -1.3791    1.2551 H   0  0  0  1  0  0  0  0  0  0  0  0
    5.8542   -0.6201    2.6322 H   0  0  0  1  0  0  0  0  0  0  0  0
    3.6659   -3.6470    1.7632 H   0  0  0  1  0  0  0  0  0  0  0  0
    2.5153   -4.5176    3.8592 H   0  0  0  1  0  0  0  0  0  0  0  0
    2.7148   -4.0663    6.6402 H   0  0  0  1  0  0  0  0  0  0  0  0
    3.8861   -2.6551    8.2674 H   0  0  0  1  0  0  0  0  0  0  0  0
    6.0498   -0.7308    5.1726 H   0  0  0  1  0  0  0  0  0  0  0  0
    6.3019   -5.6668   -0.1133 H   0  0  0  1  0  0  0  0  0  0  0  0
    7.9331   -5.9186   -0.6865 H   0  0  0  1  0  0  0  0  0  0  0  0
    6.9000   -4.7505   -1.4754 H   0  0  0  1  0  0  0  0  0  0  0  0
    8.4677   -0.8416    3.2746 H   0  0  0  1  0  0  0  0  0  0  0  0
    9.9700   -1.2352    4.9615 H   0  0  0  1  0  0  0  0  0  0  0  0
    9.9884   -2.9105    4.4659 H   0  0  0  1  0  0  0  0  0  0  0  0
    8.7677   -2.3419    5.5798 H   0  0  0  1  0  0  0  0  0  0  0  0
  1  3  1  0  0  0  0
  1 14  2  0  0  0  0
  1 19  1  0  0  0  0
  2  3  1  0  0  0  0
  2 16  1  0  0  0  0
  2 21  1  0  0  0  0
  3  4  1  0  0  0  0
  3 22  1  0  0  0  0
  4  5  1  0  0  0  0
  4 23  1  0  0  0  0
  4 24  1  0  0  0  0
  5  6  4  0  0  0  0
  5 13  4  0  0  0  0
  6  7  4  0  0  0  0
  6 25  1  0  0  0  0
  7  8  4  0  0  0  0
  7 26  1  0  0  0  0
  8  9  4  0  0  0  0
  8 13  4  0  0  0  0
  9 10  4  0  0  0  0
  9 27  1  0  0  0  0
 10 11  4  0  0  0  0
 10 28  1  0  0  0  0
 11 12  4  0  0  0  0
 11 15  1  0  0  0  0
 12 13  4  0  0  0  0
 12 29  1  0  0  0  0
 16 17  2  0  0  0  0
 16 18  1  0  0  0  0
 18 30  1  0  0  0  0
 18 31  1  0  0  0  0
 18 32  1  0  0  0  0
 19 20  1  0  0  0  0
 19 33  1  0  0  0  0
 20 34  1  0  0  0  0
 20 35  1  0  0  0  0
 20 36  1  0  0  0  0
M  END
> <ConfClashScore>
0 

> <ConfOneFourInteractionScore>
-0.982563 

> <ConfScore>
0.655706 

> <ConfScorePBest>
0.00675547 

> <ConfTolerance>
0.615464 

$$$$
5FW.qm
 OpenBabel09182216093D

 36 37  0  0  0  0  0  0  0  0999 V2000
    5.8339   -3.3228    0.4514 C   0  0  0  1  0  0  0  0  0  0  0  0
    7.6072   -1.6169    0.6981 N   0  0  0  1  0  0  0  0  0  0  0  0
    6.6100   -2.4159    1.3946 C   0  0  0  1  0  0  0  0  0  0  0  0
    5.6198   -1.5571    2.1704 C   0  0  0  1  0  0  0  0  0  0  0  0
    4.7430   -2.3580    3.0955 C   0  0  0  1  0  0  0  0  0  0  0  0
    3.8458   -3.3232    2.7448 C   0  0  0  1  0  0  0  0  0  0  0  0
    3.2222   -3.8184    3.8613 N   0  0  0  1  0  0  0  0  0  0  0  0
    3.7241   -3.1911    4.9686 C   0  0  0  1  0  0  0  0  0  0  0  0
    3.4215   -3.3552    6.3232 C   0  0  0  1  0  0  0  0  0  0  0  0
    4.0916   -2.5579    7.2254 C   0  0  0  1  0  0  0  0  0  0  0  0
    5.0305   -1.6199    6.8076 C   0  0  0  1  0  0  0  0  0  0  0  0
    5.3340   -1.4612    5.4735 C   0  0  0  1  0  0  0  0  0  0  0  0
    4.6811   -2.2608    4.5291 C   0  0  0  1  0  0  0  0  0  0  0  0
    5.1159   -2.8629   -0.4211 O   0  0  0  1  0  0  0  0  0  0  0  0
    5.6532   -0.8537    7.7236 F   0  0  0  1  0  0  0  0  0  0  0  0
    8.8697   -1.5294    1.1178 C   0  0  0  1  0  0  0  0  0  0  0  0
    9.2780   -2.0963    2.1180 O   0  0  0  1  0  0  0  0  0  0  0  0
    9.7879   -0.6714    0.2694 C   0  0  0  1  0  0  0  0  0  0  0  0
    5.9945   -4.6412    0.6464 N   0  0  0  1  0  0  0  0  0  0  0  0
    5.3891   -5.6348   -0.2258 C   0  0  0  1  0  0  0  0  0  0  0  0
    7.3414   -1.1260   -0.1074 H   0  0  0  1  0  0  0  0  0  0  0  0
    7.1134   -3.0414    2.1019 H   0  0  0  1  0  0  0  0  0  0  0  0
    4.9955   -1.0412    1.4711 H   0  0  0  1  0  0  0  0  0  0  0  0
    6.1684   -0.8459    2.7518 H   0  0  0  1  0  0  0  0  0  0  0  0
    3.6612   -3.6384    1.7710 H   0  0  0  1  0  0  0  0  0  0  0  0
    2.5284   -4.5105    3.8653 H   0  0  0  1  0  0  0  0  0  0  0  0
    2.7172   -4.0526    6.6383 H   0  0  0  1  0  0  0  0  0  0  0  0
    3.8913   -2.6596    8.2408 H   0  0  0  1  0  0  0  0  0  0  0  0
    6.0382   -0.7575    5.1725 H   0  0  0  1  0  0  0  0  0  0  0  0
    9.7025    0.3512    0.5727 H   0  0  0  1  0  0  0  0  0  0  0  0
    9.5103   -0.7622   -0.7599 H   0  0  0  1  0  0  0  0  0  0  0  0
   10.7990   -0.9977    0.3967 H   0  0  0  1  0  0  0  0  0  0  0  0
    6.5386   -4.9447    1.4029 H   0  0  0  1  0  0  0  0  0  0  0  0
    5.2520   -5.2175   -1.2015 H   0  0  0  1  0  0  0  0  0  0  0  0
    4.4405   -5.9284    0.1728 H   0  0  0  1  0  0  0  0  0  0  0  0
    6.0293   -6.4897   -0.2905 H   0  0  0  1  0  0  0  0  0  0  0  0
  1  3  1  0  0  0  0
  1 14  2  0  0  0  0
  1 19  1  0  0  0  0
  2  3  1  0  0  0  0
  2 16  1  0  0  0  0
  2 21  1  0  0  0  0
  3  4  1  0  0  0  0
  3 22  1  0  0  0  0
  4  5  1  0  0  0  0
  4 23  1  0  0  0  0
  4 24  1  0  0  0  0
  5  6  4  0  0  0  0
  5 13  4  0  0  0  0
  6  7  4  0  0  0  0
  6 25  1  0  0  0  0
  7  8  4  0  0  0  0
  7 26  1  0  0  0  0
  8  9  4  0  0  0  0
  8 13  4  0  0  0  0
  9 10  4  0  0  0  0
  9 27  1  0  0  0  0
 10 11  4  0  0  0  0
 10 28  1  0  0  0  0
 11 12  4  0  0  0  0
 11 15  1  0  0  0  0
 12 13  4  0  0  0  0
 12 29  1  0  0  0  0
 16 17  2  0  0  0  0
 16 18  1  0  0  0  0
 18 30  1  0  0  0  0
 18 31  1  0  0  0  0
 18 32  1  0  0  0  0
 19 20  1  0  0  0  0
 19 33  1  0  0  0  0
 20 34  1  0  0  0  0
 20 35  1  0  0  0  0
 20 36  1  0  0  0  0
M  END
> <ConfClashScore>
0 

> <ConfOneFourInteractionScore>
-0.97615 

> <ConfScore>
0.660387 

> <ConfScorePBest>
0.00665247 

> <ConfTolerance>
1.00062 

$$$$
5FW.qm
 OpenBabel09182216093D

 36 37  0  0  0  0  0  0  0  0999 V2000
    7.6529   -1.5396    0.6716 C   0  0  0  1  0  0  0  0  0  0  0  0
    7.7580   -2.5643    2.8875 N   0  0  0  1  0  0  0  0  0  0  0  0
    6.8946   -2.3161    1.7426 C   0  0  0  1  0  0  0  0  0  0  0  0
    5.6317   -1.5584    2.1640 C   0  0  0  1  0  0  0  0  0  0  0  0
    4.7473   -2.3538    3.0920 C   0  0  0  1  0  0  0  0  0  0  0  0
    3.8451   -3.3291    2.7369 C   0  0  0  1  0  0  0  0  0  0  0  0
    3.2108   -3.8264    3.8568 N   0  0  0  1  0  0  0  0  0  0  0  0
    3.7159   -3.1911    4.9753 C   0  0  0  1  0  0  0  0  0  0  0  0
    3.4156   -3.3627    6.3301 C   0  0  0  1  0  0  0  0  0  0  0  0
    4.0847   -2.5615    7.2505 C   0  0  0  1  0  0  0  0  0  0  0  0
    5.0296   -1.6260    6.7985 C   0  0  0  1  0  0  0  0  0  0  0  0
    5.3469   -1.4381    5.4667 C   0  0  0  1  0  0  0  0  0  0  0  0
    4.6797   -2.2433    4.5242 C   0  0  0  1  0  0  0  0  0  0  0  0
    7.0788   -0.7171   -0.0408 O   0  0  0  1  0  0  0  0  0  0  0  0
    5.6625   -0.8690    7.7151 F   0  0  0  1  0  0  0  0  0  0  0  0
    8.4225   -1.5552    3.4578 C   0  0  0  1  0  0  0  0  0  0  0  0
    8.2394   -0.3768    3.1556 O   0  0  0  1  0  0  0  0  0  0  0  0
    9.4307   -1.9467    4.5144 C   0  0  0  1  0  0  0  0  0  0  0  0
    8.9376   -1.8825    0.5254 N   0  0  0  1  0  0  0  0  0  0  0  0
    9.8066   -1.2431   -0.4513 C   0  0  0  1  0  0  0  0  0  0  0  0
    7.8521   -3.4734    3.2410 H   0  0  0  1  0  0  0  0  0  0  0  0
    6.5938   -3.2535    1.3234 H   0  0  0  1  0  0  0  0  0  0  0  0
    5.0717   -1.3147    1.2855 H   0  0  0  1  0  0  0  0  0  0  0  0
    5.9251   -0.6578    2.6618 H   0  0  0  1  0  0  0  0  0  0  0  0
    3.6664   -3.6466    1.7628 H   0  0  0  1  0  0  0  0  0  0  0  0
    2.5157   -4.5173    3.8587 H   0  0  0  1  0  0  0  0  0  0  0  0
    2.7150   -4.0662    6.6398 H   0  0  0  1  0  0  0  0  0  0  0  0
    3.8862   -2.6551    8.2671 H   0  0  0  1  0  0  0  0  0  0  0  0
    6.0500   -0.7305    5.1726 H   0  0  0  1  0  0  0  0  0  0  0  0
    9.4406   -3.0112    4.6217 H   0  0  0  1  0  0  0  0  0  0  0  0
    9.1621   -1.4969    5.4474 H   0  0  0  1  0  0  0  0  0  0  0  0
   10.4029   -1.6089    4.2219 H   0  0  0  1  0  0  0  0  0  0  0  0
    9.3065   -2.5888    1.0959 H   0  0  0  1  0  0  0  0  0  0  0  0
    9.4543   -0.2521   -0.6481 H   0  0  0  1  0  0  0  0  0  0  0  0
    9.8010   -1.8102   -1.3586 H   0  0  0  1  0  0  0  0  0  0  0  0
   10.8034   -1.1968   -0.0651 H   0  0  0  1  0  0  0  0  0  0  0  0
  1  3  1  0  0  0  0
  1 14  2  0  0  0  0
  1 19  1  0  0  0  0
  2  3  1  0  0  0  0
  2 16  1  0  0  0  0
  2 21  1  0  0  0  0
  3  4  1  0  0  0  0
  3 22  1  0  0  0  0
  4  5  1  0  0  0  0
  4 23  1  0  0  0  0
  4 24  1  0  0  0  0
  5  6  4  0  0  0  0
  5 13  4  0  0  0  0
  6  7  4  0  0  0  0
  6 25  1  0  0  0  0
  7  8  4  0  0  0  0
  7 26  1  0  0  0  0
  8  9  4  0  0  0  0
  8 13  4  0  0  0  0
  9 10  4  0  0  0  0
  9 27  1  0  0  0  0
 10 11  4  0  0  0  0
 10 28  1  0  0  0  0
 11 12  4  0  0  0  0
 11 15  1  0  0  0  0
 12 13  4  0  0  0  0
 12 29  1  0  0  0  0
 16 17  2  0  0  0  0
 16 18  1  0  0  0  0
 18 30  1  0  0  0  0
 18 31  1  0  0  0  0
 18 32  1  0  0  0  0
 19 20  1  0  0  0  0
 19 33  1  0  0  0  0
 20 34  1  0  0  0  0
 20 35  1  0  0  0  0
 20 36  1  0  0  0  0
M  END
> <ConfClashScore>
0 

> <ConfOneFourInteractionScore>
-0.953489 

> <ConfScore>
0.668157 

> <ConfScorePBest>
0.00654947 

> <ConfTolerance>
0.360147 

$$$$
5FW.qm
 OpenBabel09182216093D

 36 37  0  0  0  0  0  0  0  0999 V2000
    5.9827    0.9359    2.1559 C   0  0  0  1  0  0  0  0  0  0  0  0
    4.7498   -0.1543    0.3277 N   0  0  0  1  0  0  0  0  0  0  0  0
    5.0609   -0.2081    1.7484 C   0  0  0  1  0  0  0  0  0  0  0  0
    5.6198   -1.5571    2.1704 C   0  0  0  1  0  0  0  0  0  0  0  0
    4.7430   -2.3580    3.0955 C   0  0  0  1  0  0  0  0  0  0  0  0
    3.8458   -3.3232    2.7448 C   0  0  0  1  0  0  0  0  0  0  0  0
    3.2222   -3.8184    3.8613 N   0  0  0  1  0  0  0  0  0  0  0  0
    3.7241   -3.1911    4.9686 C   0  0  0  1  0  0  0  0  0  0  0  0
    3.4215   -3.3552    6.3232 C   0  0  0  1  0  0  0  0  0  0  0  0
    4.0916   -2.5579    7.2254 C   0  0  0  1  0  0  0  0  0  0  0  0
    5.0305   -1.6199    6.8076 C   0  0  0  1  0  0  0  0  0  0  0  0
    5.3340   -1.4612    5.4735 C   0  0  0  1  0  0  0  0  0  0  0  0
    4.6811   -2.2608    4.5291 C   0  0  0  1  0  0  0  0  0  0  0  0
    5.8844    1.5008    3.2300 O   0  0  0  1  0  0  0  0  0  0  0  0
    5.6532   -0.8537    7.7236 F   0  0  0  1  0  0  0  0  0  0  0  0
    4.3229    0.9981   -0.2290 C   0  0  0  1  0  0  0  0  0  0  0  0
    4.2368    2.0308    0.4342 O   0  0  0  1  0  0  0  0  0  0  0  0
    3.9512    0.9848   -1.6990 C   0  0  0  1  0  0  0  0  0  0  0  0
    6.9382    1.3385    1.3043 N   0  0  0  1  0  0  0  0  0  0  0  0
    7.8553    2.4024    1.6849 C   0  0  0  1  0  0  0  0  0  0  0  0
    4.8506   -0.9568   -0.2257 H   0  0  0  1  0  0  0  0  0  0  0  0
    4.1454   -0.0732    2.2854 H   0  0  0  1  0  0  0  0  0  0  0  0
    6.5534   -1.3875    2.6649 H   0  0  0  1  0  0  0  0  0  0  0  0
    5.7841   -2.1375    1.2866 H   0  0  0  1  0  0  0  0  0  0  0  0
    3.6612   -3.6384    1.7710 H   0  0  0  1  0  0  0  0  0  0  0  0
    2.5284   -4.5105    3.8653 H   0  0  0  1  0  0  0  0  0  0  0  0
    2.7172   -4.0526    6.6383 H   0  0  0  1  0  0  0  0  0  0  0  0
    3.8913   -2.6596    8.2408 H   0  0  0  1  0  0  0  0  0  0  0  0
    6.0382   -0.7575    5.1725 H   0  0  0  1  0  0  0  0  0  0  0  0
    4.8114    0.7312   -2.2827 H   0  0  0  1  0  0  0  0  0  0  0  0
    3.5985    1.9533   -1.9863 H   0  0  0  1  0  0  0  0  0  0  0  0
    3.1814    0.2605   -1.8655 H   0  0  0  1  0  0  0  0  0  0  0  0
    7.0186    0.9152    0.4241 H   0  0  0  1  0  0  0  0  0  0  0  0
    8.2356    2.8779    0.8051 H   0  0  0  1  0  0  0  0  0  0  0  0
    8.6672    1.9892    2.2461 H   0  0  0  1  0  0  0  0  0  0  0  0
    7.3372    3.1223    2.2835 H   0  0  0  1  0  0  0  0  0  0  0  0
  1  3  1  0  0  0  0
  1 14  2  0  0  0  0
  1 19  1  0  0  0  0
  2  3  1  0  0  0  0
  2 16  1  0  0  0  0
  2 21  1  0  0  0  0
  3  4  1  0  0  0  0
  3 22  1  0  0  0  0
  4  5  1  0  0  0  0
  4 23  1  0  0  0  0
  4 24  1  0  0  0  0
  5  6  4  0  0  0  0
  5 13  4  0  0  0  0
  6  7  4  0  0  0  0
  6 25  1  0  0  0  0
  7  8  4  0  0  0  0
  7 26  1  0  0  0  0
  8  9  4  0  0  0  0
  8 13  4  0  0  0  0
  9 10  4  0  0  0  0
  9 27  1  0  0  0  0
 10 11  4  0  0  0  0
 10 28  1  0  0  0  0
 11 12  4  0  0  0  0
 11 15  1  0  0  0  0
 12 13  4  0  0  0  0
 12 29  1  0  0  0  0
 16 17  2  0  0  0  0
 16 18  1  0  0  0  0
 18 30  1  0  0  0  0
 18 31  1  0  0  0  0
 18 32  1  0  0  0  0
 19 20  1  0  0  0  0
 19 33  1  0  0  0  0
 20 34  1  0  0  0  0
 20 35  1  0  0  0  0
 20 36  1  0  0  0  0
M  END
> <ConfClashScore>
0 

> <ConfOneFourInteractionScore>
-0.948834 

> <ConfScore>
0.674609 

> <ConfScorePBest>
0.00644647 

> <ConfTolerance>
1.03289 

$$$$
5FW.qm
 OpenBabel09182216093D

 36 37  0  0  0  0  0  0  0  0999 V2000
    7.6928   -1.5711    0.7655 C   0  0  0  1  0  0  0  0  0  0  0  0
    7.5736   -2.8940    2.8153 N   0  0  0  1  0  0  0  0  0  0  0  0
    6.8008   -2.3902    1.6897 C   0  0  0  1  0  0  0  0  0  0  0  0
    5.6198   -1.5571    2.1704 C   0  0  0  1  0  0  0  0  0  0  0  0
    4.7430   -2.3580    3.0955 C   0  0  0  1  0  0  0  0  0  0  0  0
    3.8458   -3.3232    2.7448 C   0  0  0  1  0  0  0  0  0  0  0  0
    3.2222   -3.8184    3.8613 N   0  0  0  1  0  0  0  0  0  0  0  0
    3.7241   -3.1911    4.9686 C   0  0  0  1  0  0  0  0  0  0  0  0
    3.4215   -3.3552    6.3232 C   0  0  0  1  0  0  0  0  0  0  0  0
    4.0916   -2.5579    7.2254 C   0  0  0  1  0  0  0  0  0  0  0  0
    5.0305   -1.6199    6.8076 C   0  0  0  1  0  0  0  0  0  0  0  0
    5.3340   -1.4612    5.4735 C   0  0  0  1  0  0  0  0  0  0  0  0
    4.6811   -2.2608    4.5291 C   0  0  0  1  0  0  0  0  0  0  0  0
    7.2157   -0.6675    0.0841 O   0  0  0  1  0  0  0  0  0  0  0  0
    5.6532   -0.8537    7.7236 F   0  0  0  1  0  0  0  0  0  0  0  0
    7.9069   -2.1229    3.8543 C   0  0  0  1  0  0  0  0  0  0  0  0
    7.7746   -0.8998    3.8504 O   0  0  0  1  0  0  0  0  0  0  0  0
    8.4676   -2.8500    5.0610 C   0  0  0  1  0  0  0  0  0  0  0  0
    8.9792   -1.9427    0.6694 N   0  0  0  1  0  0  0  0  0  0  0  0
    9.9242   -1.2554   -0.1980 C   0  0  0  1  0  0  0  0  0  0  0  0
    7.8595   -3.8313    2.8110 H   0  0  0  1  0  0  0  0  0  0  0  0
    6.4175   -3.2193    1.1324 H   0  0  0  1  0  0  0  0  0  0  0  0
    5.0439   -1.2442    1.3246 H   0  0  0  1  0  0  0  0  0  0  0  0
    5.9860   -0.6971    2.6911 H   0  0  0  1  0  0  0  0  0  0  0  0
    3.6612   -3.6384    1.7710 H   0  0  0  1  0  0  0  0  0  0  0  0
    2.5284   -4.5105    3.8653 H   0  0  0  1  0  0  0  0  0  0  0  0
    2.7172   -4.0526    6.6383 H   0  0  0  1  0  0  0  0  0  0  0  0
    3.8913   -2.6596    8.2408 H   0  0  0  1  0  0  0  0  0  0  0  0
    6.0382   -0.7575    5.1725 H   0  0  0  1  0  0  0  0  0  0  0  0
    7.9058   -3.7445    5.2319 H   0  0  0  1  0  0  0  0  0  0  0  0
    8.4005   -2.2172    5.9212 H   0  0  0  1  0  0  0  0  0  0  0  0
    9.4920   -3.1013    4.8815 H   0  0  0  1  0  0  0  0  0  0  0  0
    9.2928   -2.7033    1.2018 H   0  0  0  1  0  0  0  0  0  0  0  0
    9.5191   -0.3085   -0.4883 H   0  0  0  1  0  0  0  0  0  0  0  0
   10.1040   -1.8486   -1.0702 H   0  0  0  1  0  0  0  0  0  0  0  0
   10.8443   -1.1036    0.3267 H   0  0  0  1  0  0  0  0  0  0  0  0
  1  3  1  0  0  0  0
  1 14  2  0  0  0  0
  1 19  1  0  0  0  0
  2  3  1  0  0  0  0
  2 16  1  0  0  0  0
  2 21  1  0  0  0  0
  3  4  1  0  0  0  0
  3 22  1  0  0  0  0
  4  5  1  0  0  0  0
  4 23  1  0  0  0  0
  4 24  1  0  0  0  0
  5  6  4  0  0  0  0
  5 13  4  0  0  0  0
  6  7  4  0  0  0  0
  6 25  1  0  0  0  0
  7  8  4  0  0  0  0
  7 26  1  0  0  0  0
  8  9  4  0  0  0  0
  8 13  4  0  0  0  0
  9 10  4  0  0  0  0
  9 27  1  0  0  0  0
 10 11  4  0  0  0  0
 10 28  1  0  0  0  0
 11 12  4  0  0  0  0
 11 15  1  0  0  0  0
 12 13  4  0  0  0  0
 12 29  1  0  0  0  0
 16 17  2  0  0  0  0
 16 18  1  0  0  0  0
 18 30  1  0  0  0  0
 18 31  1  0  0  0  0
 18 32  1  0  0  0  0
 19 20  1  0  0  0  0
 19 33  1  0  0  0  0
 20 34  1  0  0  0  0
 20 35  1  0  0  0  0
 20 36  1  0  0  0  0
M  END
> <ConfClashScore>
0 

> <ConfOneFourInteractionScore>
-0.953096 

> <ConfScore>
0.675889 

> <ConfScorePBest>
0.00634346 

> <ConfTolerance>
0.844336 

$$$$
5FW.qm
 OpenBabel09182216093D

 36 37  0  0  0  0  0  0  0  0999 V2000
    5.8587   -3.4319    0.5412 C   0  0  0  1  0  0  0  0  0  0  0  0
    4.1441   -1.6260    0.1930 N   0  0  0  1  0  0  0  0  0  0  0  0
    5.4664   -1.9590    0.7015 C   0  0  0  1  0  0  0  0  0  0  0  0
    5.6198   -1.5571    2.1704 C   0  0  0  1  0  0  0  0  0  0  0  0
    4.7430   -2.3580    3.0955 C   0  0  0  1  0  0  0  0  0  0  0  0
    3.8458   -3.3232    2.7448 C   0  0  0  1  0  0  0  0  0  0  0  0
    3.2222   -3.8184    3.8613 N   0  0  0  1  0  0  0  0  0  0  0  0
    3.7241   -3.1911    4.9686 C   0  0  0  1  0  0  0  0  0  0  0  0
    3.4215   -3.3552    6.3232 C   0  0  0  1  0  0  0  0  0  0  0  0
    4.0916   -2.5579    7.2254 C   0  0  0  1  0  0  0  0  0  0  0  0
    5.0305   -1.6199    6.8076 C   0  0  0  1  0  0  0  0  0  0  0  0
    5.3340   -1.4612    5.4735 C   0  0  0  1  0  0  0  0  0  0  0  0
    4.6811   -2.2608    4.5291 C   0  0  0  1  0  0  0  0  0  0  0  0
    5.0180   -4.3115    0.4519 O   0  0  0  1  0  0  0  0  0  0  0  0
    5.6532   -0.8537    7.7236 F   0  0  0  1  0  0  0  0  0  0  0  0
    3.9031   -0.4001   -0.3162 C   0  0  0  1  0  0  0  0  0  0  0  0
    4.7616    0.4806   -0.2862 O   0  0  0  1  0  0  0  0  0  0  0  0
    2.5407   -0.1375   -0.9280 C   0  0  0  1  0  0  0  0  0  0  0  0
    7.1844   -3.6367    0.5113 N   0  0  0  1  0  0  0  0  0  0  0  0
    7.7627   -4.9537    0.2900 C   0  0  0  1  0  0  0  0  0  0  0  0
    3.4273   -2.2937    0.2205 H   0  0  0  1  0  0  0  0  0  0  0  0
    6.1814   -1.3869    0.1480 H   0  0  0  1  0  0  0  0  0  0  0  0
    5.3639   -0.5229    2.2690 H   0  0  0  1  0  0  0  0  0  0  0  0
    6.6402   -1.7016    2.4582 H   0  0  0  1  0  0  0  0  0  0  0  0
    3.6612   -3.6384    1.7710 H   0  0  0  1  0  0  0  0  0  0  0  0
    2.5284   -4.5105    3.8653 H   0  0  0  1  0  0  0  0  0  0  0  0
    2.7172   -4.0526    6.6383 H   0  0  0  1  0  0  0  0  0  0  0  0
    3.8913   -2.6596    8.2408 H   0  0  0  1  0  0  0  0  0  0  0  0
    6.0382   -0.7575    5.1725 H   0  0  0  1  0  0  0  0  0  0  0  0
    1.8592    0.1713   -0.1631 H   0  0  0  1  0  0  0  0  0  0  0  0
    2.1781   -1.0329   -1.3881 H   0  0  0  1  0  0  0  0  0  0  0  0
    2.6235    0.6343   -1.6644 H   0  0  0  1  0  0  0  0  0  0  0  0
    7.7840   -2.8729    0.6431 H   0  0  0  1  0  0  0  0  0  0  0  0
    7.1346   -5.6985    0.7322 H   0  0  0  1  0  0  0  0  0  0  0  0
    8.7342   -4.9959    0.7364 H   0  0  0  1  0  0  0  0  0  0  0  0
    7.8446   -5.1349   -0.7614 H   0  0  0  1  0  0  0  0  0  0  0  0
  1  3  1  0  0  0  0
  1 14  2  0  0  0  0
  1 19  1  0  0  0  0
  2  3  1  0  0  0  0
  2 16  1  0  0  0  0
  2 21  1  0  0  0  0
  3  4  1  0  0  0  0
  3 22  1  0  0  0  0
  4  5  1  0  0  0  0
  4 23  1  0  0  0  0
  4 24  1  0  0  0  0
  5  6  4  0  0  0  0
  5 13  4  0  0  0  0
  6  7  4  0  0  0  0
  6 25  1  0  0  0  0
  7  8  4  0  0  0  0
  7 26  1  0  0  0  0
  8  9  4  0  0  0  0
  8 13  4  0  0  0  0
  9 10  4  0  0  0  0
  9 27  1  0  0  0  0
 10 11  4  0  0  0  0
 10 28  1  0  0  0  0
 11 12  4  0  0  0  0
 11 15  1  0  0  0  0
 12 13  4  0  0  0  0
 12 29  1  0  0  0  0
 16 17  2  0  0  0  0
 16 18  1  0  0  0  0
 18 30  1  0  0  0  0
 18 31  1  0  0  0  0
 18 32  1  0  0  0  0
 19 20  1  0  0  0  0
 19 33  1  0  0  0  0
 20 34  1  0  0  0  0
 20 35  1  0  0  0  0
 20 36  1  0  0  0  0
M  END
> <ConfClashScore>
0 

> <ConfOneFourInteractionScore>
-0.979817 

> <ConfScore>
0.675937 

> <ConfScorePBest>
0.00624046 

> <ConfTolerance>
0.925067 

$$$$
5FW.qm
 OpenBabel09182216093D

 36 37  0  0  0  0  0  0  0  0999 V2000
    7.9694   -1.2795    1.2389 C   0  0  0  1  0  0  0  0  0  0  0  0
    7.4858   -1.3787    3.6827 N   0  0  0  1  0  0  0  0  0  0  0  0
    7.1114   -1.8577    2.3474 C   0  0  0  1  0  0  0  0  0  0  0  0
    5.6198   -1.5571    2.1704 C   0  0  0  1  0  0  0  0  0  0  0  0
    4.7430   -2.3580    3.0955 C   0  0  0  1  0  0  0  0  0  0  0  0
    3.8458   -3.3232    2.7448 C   0  0  0  1  0  0  0  0  0  0  0  0
    3.2222   -3.8184    3.8613 N   0  0  0  1  0  0  0  0  0  0  0  0
    3.7241   -3.1911    4.9686 C   0  0  0  1  0  0  0  0  0  0  0  0
    3.4215   -3.3552    6.3232 C   0  0  0  1  0  0  0  0  0  0  0  0
    4.0916   -2.5579    7.2254 C   0  0  0  1  0  0  0  0  0  0  0  0
    5.0305   -1.6199    6.8076 C   0  0  0  1  0  0  0  0  0  0  0  0
    5.3340   -1.4612    5.4735 C   0  0  0  1  0  0  0  0  0  0  0  0
    4.6811   -2.2608    4.5291 C   0  0  0  1  0  0  0  0  0  0  0  0
    7.7202   -1.5046    0.0554 O   0  0  0  1  0  0  0  0  0  0  0  0
    5.6532   -0.8537    7.7236 F   0  0  0  1  0  0  0  0  0  0  0  0
    8.1958   -2.1235    4.5350 C   0  0  0  1  0  0  0  0  0  0  0  0
    8.5781   -3.2627    4.2712 O   0  0  0  1  0  0  0  0  0  0  0  0
    8.5109   -1.4771    5.8699 C   0  0  0  1  0  0  0  0  0  0  0  0
    8.9947   -0.5234    1.6343 N   0  0  0  1  0  0  0  0  0  0  0  0
    9.9715    0.0129    0.6982 C   0  0  0  1  0  0  0  0  0  0  0  0
    7.2054   -0.4813    3.9591 H   0  0  0  1  0  0  0  0  0  0  0  0
    7.2292   -2.9210    2.3276 H   0  0  0  1  0  0  0  0  0  0  0  0
    5.3446   -1.7816    1.1610 H   0  0  0  1  0  0  0  0  0  0  0  0
    5.4569   -0.5171    2.3621 H   0  0  0  1  0  0  0  0  0  0  0  0
    3.6612   -3.6384    1.7710 H   0  0  0  1  0  0  0  0  0  0  0  0
    2.5284   -4.5105    3.8653 H   0  0  0  1  0  0  0  0  0  0  0  0
    2.7172   -4.0526    6.6383 H   0  0  0  1  0  0  0  0  0  0  0  0
    3.8913   -2.6596    8.2408 H   0  0  0  1  0  0  0  0  0  0  0  0
    6.0382   -0.7575    5.1725 H   0  0  0  1  0  0  0  0  0  0  0  0
    9.0244   -0.5527    5.7068 H   0  0  0  1  0  0  0  0  0  0  0  0
    9.1306   -2.1323    6.4457 H   0  0  0  1  0  0  0  0  0  0  0  0
    7.6000   -1.2902    6.3993 H   0  0  0  1  0  0  0  0  0  0  0  0
    9.0936   -0.3219    2.5882 H   0  0  0  1  0  0  0  0  0  0  0  0
   10.6004   -0.7779    0.3462 H   0  0  0  1  0  0  0  0  0  0  0  0
   10.5691    0.7512    1.1907 H   0  0  0  1  0  0  0  0  0  0  0  0
    9.4630    0.4597   -0.1305 H   0  0  0  1  0  0  0  0  0  0  0  0
  1  3  1  0  0  0  0
  1 14  2  0  0  0  0
  1 19  1  0  0  0  0
  2  3  1  0  0  0  0
  2 16  1  0  0  0  0
  2 21  1  0  0  0  0
  3  4  1  0  0  0  0
  3 22  1  0  0  0  0
  4  5  1  0  0  0  0
  4 23  1  0  0  0  0
  4 24  1  0  0  0  0
  5  6  4  0  0  0  0
  5 13  4  0  0  0  0
  6  7  4  0  0  0  0
  6 25  1  0  0  0  0
  7  8  4  0  0  0  0
  7 26  1  0  0  0  0
  8  9  4  0  0  0  0
  8 13  4  0  0  0  0
  9 10  4  0  0  0  0
  9 27  1  0  0  0  0
 10 11  4  0  0  0  0
 10 28  1  0  0  0  0
 11 12  4  0  0  0  0
 11 15  1  0  0  0  0
 12 13  4  0  0  0  0
 12 29  1  0  0  0  0
 16 17  2  0  0  0  0
 16 18  1  0  0  0  0
 18 30  1  0  0  0  0
 18 31  1  0  0  0  0
 18 32  1  0  0  0  0
 19 20  1  0  0  0  0
 19 33  1  0  0  0  0
 20 34  1  0  0  0  0
 20 35  1  0  0  0  0
 20 36  1  0  0  0  0
M  END
> <ConfClashScore>
0 

> <ConfOneFourInteractionScore>
-0.956443 

> <ConfScore>
0.679207 

> <ConfScorePBest>
0.00613746 

> <ConfTolerance>
1.30261 

$$$$
5FW.qm
 OpenBabel09182216093D

 36 37  0  0  0  0  0  0  0  0999 V2000
    7.8208   -1.5211    3.3447 C   0  0  0  1  0  0  0  0  0  0  0  0
    7.2343   -3.3810    1.8840 N   0  0  0  1  0  0  0  0  0  0  0  0
    7.0879   -1.9475    2.0876 C   0  0  0  1  0  0  0  0  0  0  0  0
    5.6300   -1.5599    2.1660 C   0  0  0  1  0  0  0  0  0  0  0  0
    4.7475   -2.3536    3.0919 C   0  0  0  1  0  0  0  0  0  0  0  0
    3.8453   -3.3289    2.7368 C   0  0  0  1  0  0  0  0  0  0  0  0
    3.2109   -3.8263    3.8566 N   0  0  0  1  0  0  0  0  0  0  0  0
    3.7161   -3.1909    4.9752 C   0  0  0  1  0  0  0  0  0  0  0  0
    3.4156   -3.3627    6.3299 C   0  0  0  1  0  0  0  0  0  0  0  0
    4.0847   -2.5615    7.2504 C   0  0  0  1  0  0  0  0  0  0  0  0
    5.0297   -1.6260    6.7984 C   0  0  0  1  0  0  0  0  0  0  0  0
    5.3470   -1.4380    5.4666 C   0  0  0  1  0  0  0  0  0  0  0  0
    4.6798   -2.2432    4.5241 C   0  0  0  1  0  0  0  0  0  0  0  0
    7.6102   -2.0706    4.4227 O   0  0  0  1  0  0  0  0  0  0  0  0
    5.6626   -0.8689    7.7151 F   0  0  0  1  0  0  0  0  0  0  0  0
    7.8936   -3.8920    0.8330 C   0  0  0  1  0  0  0  0  0  0  0  0
    8.3211   -3.2015   -0.0883 O   0  0  0  1  0  0  0  0  0  0  0  0
    8.0860   -5.3960    0.8440 C   0  0  0  1  0  0  0  0  0  0  0  0
    8.6945   -0.5241    3.1961 N   0  0  0  1  0  0  0  0  0  0  0  0
    9.5108   -0.0941    4.3216 C   0  0  0  1  0  0  0  0  0  0  0  0
    6.8375   -3.9944    2.5371 H   0  0  0  1  0  0  0  0  0  0  0  0
    7.5238   -1.4326    1.2570 H   0  0  0  1  0  0  0  0  0  0  0  0
    5.2218   -1.6482    1.1809 H   0  0  0  1  0  0  0  0  0  0  0  0
    5.5868   -0.5380    2.4803 H   0  0  0  1  0  0  0  0  0  0  0  0
    3.6666   -3.6464    1.7627 H   0  0  0  1  0  0  0  0  0  0  0  0
    2.5158   -4.5171    3.8585 H   0  0  0  1  0  0  0  0  0  0  0  0
    2.7150   -4.0661    6.6395 H   0  0  0  1  0  0  0  0  0  0  0  0
    3.8862   -2.6550    8.2670 H   0  0  0  1  0  0  0  0  0  0  0  0
    6.0502   -0.7304    5.1725 H   0  0  0  1  0  0  0  0  0  0  0  0
    7.9982   -5.7600    1.8464 H   0  0  0  1  0  0  0  0  0  0  0  0
    9.0568   -5.6339    0.4622 H   0  0  0  1  0  0  0  0  0  0  0  0
    7.3388   -5.8554    0.2313 H   0  0  0  1  0  0  0  0  0  0  0  0
    8.7868   -0.0802    2.3273 H   0  0  0  1  0  0  0  0  0  0  0  0
    8.8857    0.0691    5.1745 H   0  0  0  1  0  0  0  0  0  0  0  0
   10.0144    0.8157    4.0695 H   0  0  0  1  0  0  0  0  0  0  0  0
   10.2325   -0.8509    4.5482 H   0  0  0  1  0  0  0  0  0  0  0  0
  1  3  1  0  0  0  0
  1 14  2  0  0  0  0
  1 19  1  0  0  0  0
  2  3  1  0  0  0  0
  2 16  1  0  0  0  0
  2 21  1  0  0  0  0
  3  4  1  0  0  0  0
  3 22  1  0  0  0  0
  4  5  1  0  0  0  0
  4 23  1  0  0  0  0
  4 24  1  0  0  0  0
  5  6  4  0  0  0  0
  5 13  4  0  0  0  0
  6  7  4  0  0  0  0
  6 25  1  0  0  0  0
  7  8  4  0  0  0  0
  7 26  1  0  0  0  0
  8  9  4  0  0  0  0
  8 13  4  0  0  0  0
  9 10  4  0  0  0  0
  9 27  1  0  0  0  0
 10 11  4  0  0  0  0
 10 28  1  0  0  0  0
 11 12  4  0  0  0  0
 11 15  1  0  0  0  0
 12 13  4  0  0  0  0
 12 29  1  0  0  0  0
 16 17  2  0  0  0  0
 16 18  1  0  0  0  0
 18 30  1  0  0  0  0
 18 31  1  0  0  0  0
 18 32  1  0  0  0  0
 19 20  1  0  0  0  0
 19 33  1  0  0  0  0
 20 34  1  0  0  0  0
 20 35  1  0  0  0  0
 20 36  1  0  0  0  0
M  END
> <ConfClashScore>
0 

> <ConfOneFourInteractionScore>
-0.976093 

> <ConfScore>
0.683505 

> <ConfScorePBest>
0.00603446 

> <ConfTolerance>
0.904207 

$$$$
5FW.qm
 OpenBabel09182216093D

 36 37  0  0  0  0  0  0  0  0999 V2000
    5.7960    0.7603    1.0831 C   0  0  0  1  0  0  0  0  0  0  0  0
    3.6098   -0.2121    1.5408 N   0  0  0  1  0  0  0  0  0  0  0  0
    5.0026   -0.1663    1.9940 C   0  0  0  1  0  0  0  0  0  0  0  0
    5.6198   -1.5571    2.1704 C   0  0  0  1  0  0  0  0  0  0  0  0
    4.7430   -2.3580    3.0955 C   0  0  0  1  0  0  0  0  0  0  0  0
    3.8458   -3.3232    2.7448 C   0  0  0  1  0  0  0  0  0  0  0  0
    3.2222   -3.8184    3.8613 N   0  0  0  1  0  0  0  0  0  0  0  0
    3.7241   -3.1911    4.9686 C   0  0  0  1  0  0  0  0  0  0  0  0
    3.4215   -3.3552    6.3232 C   0  0  0  1  0  0  0  0  0  0  0  0
    4.0916   -2.5579    7.2254 C   0  0  0  1  0  0  0  0  0  0  0  0
    5.0305   -1.6199    6.8076 C   0  0  0  1  0  0  0  0  0  0  0  0
    5.3340   -1.4612    5.4735 C   0  0  0  1  0  0  0  0  0  0  0  0
    4.6811   -2.2608    4.5291 C   0  0  0  1  0  0  0  0  0  0  0  0
    6.9972    0.6167    0.9253 O   0  0  0  1  0  0  0  0  0  0  0  0
    5.6532   -0.8537    7.7236 F   0  0  0  1  0  0  0  0  0  0  0  0
    3.2250   -0.6592    0.3420 C   0  0  0  1  0  0  0  0  0  0  0  0
    4.0192   -0.9419   -0.5540 O   0  0  0  1  0  0  0  0  0  0  0  0
    1.7288   -0.8021    0.1414 C   0  0  0  1  0  0  0  0  0  0  0  0
    5.0943    1.7222    0.4819 N   0  0  0  1  0  0  0  0  0  0  0  0
    5.7017    2.6611   -0.4496 C   0  0  0  1  0  0  0  0  0  0  0  0
    2.9164    0.1054    2.1563 H   0  0  0  1  0  0  0  0  0  0  0  0
    5.0033    0.2882    2.9627 H   0  0  0  1  0  0  0  0  0  0  0  0
    6.5993   -1.4659    2.5913 H   0  0  0  1  0  0  0  0  0  0  0  0
    5.6833   -2.0462    1.2208 H   0  0  0  1  0  0  0  0  0  0  0  0
    3.6612   -3.6384    1.7710 H   0  0  0  1  0  0  0  0  0  0  0  0
    2.5284   -4.5105    3.8653 H   0  0  0  1  0  0  0  0  0  0  0  0
    2.7172   -4.0526    6.6383 H   0  0  0  1  0  0  0  0  0  0  0  0
    3.8913   -2.6596    8.2408 H   0  0  0  1  0  0  0  0  0  0  0  0
    6.0382   -0.7575    5.1725 H   0  0  0  1  0  0  0  0  0  0  0  0
    1.3487   -1.5477    0.8081 H   0  0  0  1  0  0  0  0  0  0  0  0
    1.5309   -1.0933   -0.8690 H   0  0  0  1  0  0  0  0  0  0  0  0
    1.2511    0.1337    0.3436 H   0  0  0  1  0  0  0  0  0  0  0  0
    4.1364    1.7994    0.6740 H   0  0  0  1  0  0  0  0  0  0  0  0
    6.7439    2.7599   -0.2284 H   0  0  0  1  0  0  0  0  0  0  0  0
    5.2254    3.6146   -0.3558 H   0  0  0  1  0  0  0  0  0  0  0  0
    5.5823    2.2989   -1.4493 H   0  0  0  1  0  0  0  0  0  0  0  0
  1  3  1  0  0  0  0
  1 14  2  0  0  0  0
  1 19  1  0  0  0  0
  2  3  1  0  0  0  0
  2 16  1  0  0  0  0
  2 21  1  0  0  0  0
  3  4  1  0  0  0  0
  3 22  1  0  0  0  0
  4  5  1  0  0  0  0
  4 23  1  0  0  0  0
  4 24  1  0  0  0  0
  5  6  4  0  0  0  0
  5 13  4  0  0  0  0
  6  7  4  0  0  0  0
  6 25  1  0  0  0  0
  7  8  4  0  0  0  0
  7 26  1  0  0  0  0
  8  9  4  0  0  0  0
  8 13  4  0  0  0  0
  9 10  4  0  0  0  0
  9 27  1  0  0  0  0
 10 11  4  0  0  0  0
 10 28  1  0  0  0  0
 11 12  4  0  0  0  0
 11 15  1  0  0  0  0
 12 13  4  0  0  0  0
 12 29  1  0  0  0  0
 16 17  2  0  0  0  0
 16 18  1  0  0  0  0
 18 30  1  0  0  0  0
 18 31  1  0  0  0  0
 18 32  1  0  0  0  0
 19 20  1  0  0  0  0
 19 33  1  0  0  0  0
 20 34  1  0  0  0  0
 20 35  1  0  0  0  0
 20 36  1  0  0  0  0
M  END
> <ConfClashScore>
0 

> <ConfOneFourInteractionScore>
-0.938696 

> <ConfScore>
0.685087 

> <ConfScorePBest>
0.00593146 

> <ConfTolerance>
0.451941 

$$$$
5FW.qm
 OpenBabel09182216093D

 36 37  0  0  0  0  0  0  0  0999 V2000
    5.9730   -0.2470    0.0755 C   0  0  0  1  0  0  0  0  0  0  0  0
    5.0410   -2.5054   -0.0057 N   0  0  0  1  0  0  0  0  0  0  0  0
    5.0995   -1.2813    0.7793 C   0  0  0  1  0  0  0  0  0  0  0  0
    5.6198   -1.5571    2.1704 C   0  0  0  1  0  0  0  0  0  0  0  0
    4.7430   -2.3580    3.0955 C   0  0  0  1  0  0  0  0  0  0  0  0
    3.8458   -3.3232    2.7448 C   0  0  0  1  0  0  0  0  0  0  0  0
    3.2222   -3.8184    3.8613 N   0  0  0  1  0  0  0  0  0  0  0  0
    3.7241   -3.1911    4.9686 C   0  0  0  1  0  0  0  0  0  0  0  0
    3.4215   -3.3552    6.3232 C   0  0  0  1  0  0  0  0  0  0  0  0
    4.0916   -2.5579    7.2254 C   0  0  0  1  0  0  0  0  0  0  0  0
    5.0305   -1.6199    6.8076 C   0  0  0  1  0  0  0  0  0  0  0  0
    5.3340   -1.4612    5.4735 C   0  0  0  1  0  0  0  0  0  0  0  0
    4.6811   -2.2608    4.5291 C   0  0  0  1  0  0  0  0  0  0  0  0
    6.8883   -0.5277   -0.6751 O   0  0  0  1  0  0  0  0  0  0  0  0
    5.6532   -0.8537    7.7236 F   0  0  0  1  0  0  0  0  0  0  0  0
    4.5395   -2.4837   -1.2580 C   0  0  0  1  0  0  0  0  0  0  0  0
    4.2018   -1.4266   -1.7892 O   0  0  0  1  0  0  0  0  0  0  0  0
    4.4034   -3.8022   -1.9943 C   0  0  0  1  0  0  0  0  0  0  0  0
    5.6813    1.0302    0.3262 N   0  0  0  1  0  0  0  0  0  0  0  0
    6.4727    2.1681   -0.1172 C   0  0  0  1  0  0  0  0  0  0  0  0
    5.3665   -3.3472    0.3762 H   0  0  0  1  0  0  0  0  0  0  0  0
    4.1127   -0.8772    0.8676 H   0  0  0  1  0  0  0  0  0  0  0  0
    5.7996   -0.6118    2.6382 H   0  0  0  1  0  0  0  0  0  0  0  0
    6.5441   -2.0862    2.0674 H   0  0  0  1  0  0  0  0  0  0  0  0
    3.6612   -3.6384    1.7710 H   0  0  0  1  0  0  0  0  0  0  0  0
    2.5284   -4.5105    3.8653 H   0  0  0  1  0  0  0  0  0  0  0  0
    2.7172   -4.0526    6.6383 H   0  0  0  1  0  0  0  0  0  0  0  0
    3.8913   -2.6596    8.2408 H   0  0  0  1  0  0  0  0  0  0  0  0
    6.0382   -0.7575    5.1725 H   0  0  0  1  0  0  0  0  0  0  0  0
    3.3685   -4.0048   -2.1757 H   0  0  0  1  0  0  0  0  0  0  0  0
    4.8213   -4.5874   -1.3996 H   0  0  0  1  0  0  0  0  0  0  0  0
    4.9242   -3.7449   -2.9273 H   0  0  0  1  0  0  0  0  0  0  0  0
    4.8732    1.2163    0.8484 H   0  0  0  1  0  0  0  0  0  0  0  0
    7.2071    2.4033    0.6246 H   0  0  0  1  0  0  0  0  0  0  0  0
    5.8319    3.0123   -0.2645 H   0  0  0  1  0  0  0  0  0  0  0  0
    6.9611    1.9255   -1.0379 H   0  0  0  1  0  0  0  0  0  0  0  0
  1  3  1  0  0  0  0
  1 14  2  0  0  0  0
  1 19  1  0  0  0  0
  2  3  1  0  0  0  0
  2 16  1  0  0  0  0
  2 21  1  0  0  0  0
  3  4  1  0  0  0  0
  3 22  1  0  0  0  0
  4  5  1  0  0  0  0
  4 23  1  0  0  0  0
  4 24  1  0  0  0  0
  5  6  4  0  0  0  0
  5 13  4  0  0  0  0
  6  7  4  0  0  0  0
  6 25  1  0  0  0  0
  7  8  4  0  0  0  0
  7 26  1  0  0  0  0
  8  9  4  0  0  0  0
  8 13  4  0  0  0  0
  9 10  4  0  0  0  0
  9 27  1  0  0  0  0
 10 11  4  0  0  0  0
 10 28  1  0  0  0  0
 11 12  4  0  0  0  0
 11 15  1  0  0  0  0
 12 13  4  0  0  0  0
 12 29  1  0  0  0  0
 16 17  2  0  0  0  0
 16 18  1  0  0  0  0
 18 30  1  0  0  0  0
 18 31  1  0  0  0  0
 18 32  1  0  0  0  0
 19 20  1  0  0  0  0
 19 33  1  0  0  0  0
 20 34  1  0  0  0  0
 20 35  1  0  0  0  0
 20 36  1  0  0  0  0
M  END
> <ConfClashScore>
0 

> <ConfOneFourInteractionScore>
-0.981931 

> <ConfScore>
0.686534 

> <ConfScorePBest>
0.00582846 

> <ConfTolerance>
0.987492 

$$$$
5FW.qm
 OpenBabel09182216093D

 36 37  0  0  0  0  0  0  0  0999 V2000
    5.6415    0.6063    3.3962 C   0  0  0  1  0  0  0  0  0  0  0  0
    5.8621    0.5517    0.9549 N   0  0  0  1  0  0  0  0  0  0  0  0
    5.2252   -0.0795    2.0996 C   0  0  0  1  0  0  0  0  0  0  0  0
    5.6198   -1.5571    2.1704 C   0  0  0  1  0  0  0  0  0  0  0  0
    4.7430   -2.3580    3.0955 C   0  0  0  1  0  0  0  0  0  0  0  0
    3.8458   -3.3232    2.7448 C   0  0  0  1  0  0  0  0  0  0  0  0
    3.2222   -3.8184    3.8613 N   0  0  0  1  0  0  0  0  0  0  0  0
    3.7241   -3.1911    4.9686 C   0  0  0  1  0  0  0  0  0  0  0  0
    3.4215   -3.3552    6.3232 C   0  0  0  1  0  0  0  0  0  0  0  0
    4.0916   -2.5579    7.2254 C   0  0  0  1  0  0  0  0  0  0  0  0
    5.0305   -1.6199    6.8076 C   0  0  0  1  0  0  0  0  0  0  0  0
    5.3340   -1.4612    5.4735 C   0  0  0  1  0  0  0  0  0  0  0  0
    4.6811   -2.2608    4.5291 C   0  0  0  1  0  0  0  0  0  0  0  0
    6.8250    0.6649    3.7273 O   0  0  0  1  0  0  0  0  0  0  0  0
    5.6532   -0.8537    7.7236 F   0  0  0  1  0  0  0  0  0  0  0  0
    5.7625    1.8966    0.6327 C   0  0  0  1  0  0  0  0  0  0  0  0
    5.1133    2.6236    1.3624 O   0  0  0  1  0  0  0  0  0  0  0  0
    6.4561    2.4058   -0.5996 C   0  0  0  1  0  0  0  0  0  0  0  0
    4.6840    1.1403    4.1598 N   0  0  0  1  0  0  0  0  0  0  0  0
    4.9755    1.8021    5.4227 C   0  0  0  1  0  0  0  0  0  0  0  0
    6.4025   -0.0163    0.3669 H   0  0  0  1  0  0  0  0  0  0  0  0
    4.1617   -0.0135    2.0020 H   0  0  0  1  0  0  0  0  0  0  0  0
    6.6302   -1.6236    2.5163 H   0  0  0  1  0  0  0  0  0  0  0  0
    5.5503   -1.9756    1.1881 H   0  0  0  1  0  0  0  0  0  0  0  0
    3.6612   -3.6384    1.7710 H   0  0  0  1  0  0  0  0  0  0  0  0
    2.5284   -4.5105    3.8653 H   0  0  0  1  0  0  0  0  0  0  0  0
    2.7172   -4.0526    6.6383 H   0  0  0  1  0  0  0  0  0  0  0  0
    3.8913   -2.6596    8.2408 H   0  0  0  1  0  0  0  0  0  0  0  0
    6.0382   -0.7575    5.1725 H   0  0  0  1  0  0  0  0  0  0  0  0
    6.1760    1.8064   -1.4405 H   0  0  0  1  0  0  0  0  0  0  0  0
    7.5156    2.3516   -0.4603 H   0  0  0  1  0  0  0  0  0  0  0  0
    6.1705    3.4219   -0.7752 H   0  0  0  1  0  0  0  0  0  0  0  0
    3.7530    1.0843    3.8591 H   0  0  0  1  0  0  0  0  0  0  0  0
    5.6722    2.5971    5.2569 H   0  0  0  1  0  0  0  0  0  0  0  0
    5.3973    1.0954    6.1065 H   0  0  0  1  0  0  0  0  0  0  0  0
    4.0713    2.2005    5.8334 H   0  0  0  1  0  0  0  0  0  0  0  0
  1  3  1  0  0  0  0
  1 14  2  0  0  0  0
  1 19  1  0  0  0  0
  2  3  1  0  0  0  0
  2 16  1  0  0  0  0
  2 21  1  0  0  0  0
  3  4  1  0  0  0  0
  3 22  1  0  0  0  0
  4  5  1  0  0  0  0
  4 23  1  0  0  0  0
  4 24  1  0  0  0  0
  5  6  4  0  0  0  0
  5 13  4  0  0  0  0
  6  7  4  0  0  0  0
  6 25  1  0  0  0  0
  7  8  4  0  0  0  0
  7 26  1  0  0  0  0
  8  9  4  0  0  0  0
  8 13  4  0  0  0  0
  9 10  4  0  0  0  0
  9 27  1  0  0  0  0
 10 11  4  0  0  0  0
 10 28  1  0  0  0  0
 11 12  4  0  0  0  0
 11 15  1  0  0  0  0
 12 13  4  0  0  0  0
 12 29  1  0  0  0  0
 16 17  2  0  0  0  0
 16 18  1  0  0  0  0
 18 30  1  0  0  0  0
 18 31  1  0  0  0  0
 18 32  1  0  0  0  0
 19 20  1  0  0  0  0
 19 33  1  0  0  0  0
 20 34  1  0  0  0  0
 20 35  1  0  0  0  0
 20 36  1  0  0  0  0
M  END
> <ConfClashScore>
0 

> <ConfOneFourInteractionScore>
-0.978127 

> <ConfScore>
0.686608 

> <ConfScorePBest>
0.00572546 

> <ConfTolerance>
1.31335 

$$$$
5FW.qm
 OpenBabel09182216093D

 36 37  0  0  0  0  0  0  0  0999 V2000
    5.6907    0.1672    0.3398 C   0  0  0  1  0  0  0  0  0  0  0  0
    4.2840   -1.8574    0.1402 N   0  0  0  1  0  0  0  0  0  0  0  0
    4.8359   -0.8641    1.0505 C   0  0  0  1  0  0  0  0  0  0  0  0
    5.6198   -1.5571    2.1704 C   0  0  0  1  0  0  0  0  0  0  0  0
    4.7430   -2.3580    3.0955 C   0  0  0  1  0  0  0  0  0  0  0  0
    3.8458   -3.3232    2.7448 C   0  0  0  1  0  0  0  0  0  0  0  0
    3.2222   -3.8184    3.8613 N   0  0  0  1  0  0  0  0  0  0  0  0
    3.7241   -3.1911    4.9686 C   0  0  0  1  0  0  0  0  0  0  0  0
    3.4215   -3.3552    6.3232 C   0  0  0  1  0  0  0  0  0  0  0  0
    4.0916   -2.5579    7.2254 C   0  0  0  1  0  0  0  0  0  0  0  0
    5.0305   -1.6199    6.8076 C   0  0  0  1  0  0  0  0  0  0  0  0
    5.3340   -1.4612    5.4735 C   0  0  0  1  0  0  0  0  0  0  0  0
    4.6811   -2.2608    4.5291 C   0  0  0  1  0  0  0  0  0  0  0  0
    6.2906    0.9893    1.0274 O   0  0  0  1  0  0  0  0  0  0  0  0
    5.6532   -0.8537    7.7236 F   0  0  0  1  0  0  0  0  0  0  0  0
    2.9685   -2.0124   -0.0346 C   0  0  0  1  0  0  0  0  0  0  0  0
    2.1338   -1.2503    0.4512 O   0  0  0  1  0  0  0  0  0  0  0  0
    2.5518   -3.2005   -0.8796 C   0  0  0  1  0  0  0  0  0  0  0  0
    5.7471    0.1285   -0.9945 N   0  0  0  1  0  0  0  0  0  0  0  0
    6.5258    1.1196   -1.7220 C   0  0  0  1  0  0  0  0  0  0  0  0
    4.8988   -2.4324   -0.3617 H   0  0  0  1  0  0  0  0  0  0  0  0
    4.0215   -0.3435    1.5094 H   0  0  0  1  0  0  0  0  0  0  0  0
    6.1270   -0.8097    2.7440 H   0  0  0  1  0  0  0  0  0  0  0  0
    6.3376   -2.2152    1.7268 H   0  0  0  1  0  0  0  0  0  0  0  0
    3.6612   -3.6384    1.7710 H   0  0  0  1  0  0  0  0  0  0  0  0
    2.5284   -4.5105    3.8653 H   0  0  0  1  0  0  0  0  0  0  0  0
    2.7172   -4.0526    6.6383 H   0  0  0  1  0  0  0  0  0  0  0  0
    3.8913   -2.6596    8.2408 H   0  0  0  1  0  0  0  0  0  0  0  0
    6.0382   -0.7575    5.1725 H   0  0  0  1  0  0  0  0  0  0  0  0
    2.2777   -4.0143   -0.2413 H   0  0  0  1  0  0  0  0  0  0  0  0
    3.3680   -3.4970   -1.5047 H   0  0  0  1  0  0  0  0  0  0  0  0
    1.7156   -2.9284   -1.4892 H   0  0  0  1  0  0  0  0  0  0  0  0
    5.2630   -0.5687   -1.4843 H   0  0  0  1  0  0  0  0  0  0  0  0
    6.2121    2.1014   -1.4347 H   0  0  0  1  0  0  0  0  0  0  0  0
    6.3742    0.9904   -2.7733 H   0  0  0  1  0  0  0  0  0  0  0  0
    7.5636    0.9957   -1.4929 H   0  0  0  1  0  0  0  0  0  0  0  0
  1  3  1  0  0  0  0
  1 14  2  0  0  0  0
  1 19  1  0  0  0  0
  2  3  1  0  0  0  0
  2 16  1  0  0  0  0
  2 21  1  0  0  0  0
  3  4  1  0  0  0  0
  3 22  1  0  0  0  0
  4  5  1  0  0  0  0
  4 23  1  0  0  0  0
  4 24  1  0  0  0  0
  5  6  4  0  0  0  0
  5 13  4  0  0  0  0
  6  7  4  0  0  0  0
  6 25  1  0  0  0  0
  7  8  4  0  0  0  0
  7 26  1  0  0  0  0
  8  9  4  0  0  0  0
  8 13  4  0  0  0  0
  9 10  4  0  0  0  0
  9 27  1  0  0  0  0
 10 11  4  0  0  0  0
 10 28  1  0  0  0  0
 11 12  4  0  0  0  0
 11 15  1  0  0  0  0
 12 13  4  0  0  0  0
 12 29  1  0  0  0  0
 16 17  2  0  0  0  0
 16 18  1  0  0  0  0
 18 30  1  0  0  0  0
 18 31  1  0  0  0  0
 18 32  1  0  0  0  0
 19 20  1  0  0  0  0
 19 33  1  0  0  0  0
 20 34  1  0  0  0  0
 20 35  1  0  0  0  0
 20 36  1  0  0  0  0
M  END
> <ConfClashScore>
0 

> <ConfOneFourInteractionScore>
-0.956443 

> <ConfScore>
0.705702 

> <ConfScorePBest>
0.00562246 

> <ConfTolerance>
1.11141 

$$$$
5FW.qm
 OpenBabel09182216093D

 36 37  0  0  0  0  0  0  0  0999 V2000
    3.9784   -1.1906    0.2689 C   0  0  0  1  0  0  0  0  0  0  0  0
    6.3501   -1.2471   -0.1695 N   0  0  0  1  0  0  0  0  0  0  0  0
    5.3040   -1.7852    0.6874 C   0  0  0  1  0  0  0  0  0  0  0  0
    5.6300   -1.5599    2.1660 C   0  0  0  1  0  0  0  0  0  0  0  0
    4.7475   -2.3536    3.0919 C   0  0  0  1  0  0  0  0  0  0  0  0
    3.8453   -3.3289    2.7368 C   0  0  0  1  0  0  0  0  0  0  0  0
    3.2109   -3.8263    3.8566 N   0  0  0  1  0  0  0  0  0  0  0  0
    3.7161   -3.1909    4.9752 C   0  0  0  1  0  0  0  0  0  0  0  0
    3.4156   -3.3627    6.3299 C   0  0  0  1  0  0  0  0  0  0  0  0
    4.0847   -2.5615    7.2504 C   0  0  0  1  0  0  0  0  0  0  0  0
    5.0297   -1.6260    6.7984 C   0  0  0  1  0  0  0  0  0  0  0  0
    5.3470   -1.4380    5.4666 C   0  0  0  1  0  0  0  0  0  0  0  0
    4.6798   -2.2432    4.5241 C   0  0  0  1  0  0  0  0  0  0  0  0
    3.8719    0.0129    0.0365 O   0  0  0  1  0  0  0  0  0  0  0  0
    5.6626   -0.8689    7.7151 F   0  0  0  1  0  0  0  0  0  0  0  0
    6.2844   -1.1722   -1.5018 C   0  0  0  1  0  0  0  0  0  0  0  0
    5.2944   -1.5196   -2.1442 O   0  0  0  1  0  0  0  0  0  0  0  0
    7.5187   -0.6258   -2.1925 C   0  0  0  1  0  0  0  0  0  0  0  0
    2.9239   -2.0140    0.1591 N   0  0  0  1  0  0  0  0  0  0  0  0
    1.6469   -1.4430   -0.2423 C   0  0  0  1  0  0  0  0  0  0  0  0
    7.1640   -0.9147    0.2634 H   0  0  0  1  0  0  0  0  0  0  0  0
    5.2496   -2.8420    0.5290 H   0  0  0  1  0  0  0  0  0  0  0  0
    5.5078   -0.5202    2.3871 H   0  0  0  1  0  0  0  0  0  0  0  0
    6.6471   -1.8445    2.3377 H   0  0  0  1  0  0  0  0  0  0  0  0
    3.6666   -3.6464    1.7627 H   0  0  0  1  0  0  0  0  0  0  0  0
    2.5158   -4.5171    3.8585 H   0  0  0  1  0  0  0  0  0  0  0  0
    2.7150   -4.0661    6.6395 H   0  0  0  1  0  0  0  0  0  0  0  0
    3.8862   -2.6550    8.2670 H   0  0  0  1  0  0  0  0  0  0  0  0
    6.0502   -0.7304    5.1725 H   0  0  0  1  0  0  0  0  0  0  0  0
    8.3523   -0.6717   -1.5232 H   0  0  0  1  0  0  0  0  0  0  0  0
    7.3466    0.3908   -2.4782 H   0  0  0  1  0  0  0  0  0  0  0  0
    7.7283   -1.2111   -3.0634 H   0  0  0  1  0  0  0  0  0  0  0  0
    3.0116   -2.9725    0.3439 H   0  0  0  1  0  0  0  0  0  0  0  0
    0.9089   -1.6607    0.5012 H   0  0  0  1  0  0  0  0  0  0  0  0
    1.3458   -1.8658   -1.1779 H   0  0  0  1  0  0  0  0  0  0  0  0
    1.7472   -0.3827   -0.3452 H   0  0  0  1  0  0  0  0  0  0  0  0
  1  3  1  0  0  0  0
  1 14  2  0  0  0  0
  1 19  1  0  0  0  0
  2  3  1  0  0  0  0
  2 16  1  0  0  0  0
  2 21  1  0  0  0  0
  3  4  1  0  0  0  0
  3 22  1  0  0  0  0
  4  5  1  0  0  0  0
  4 23  1  0  0  0  0
  4 24  1  0  0  0  0
  5  6  4  0  0  0  0
  5 13  4  0  0  0  0
  6  7  4  0  0  0  0
  6 25  1  0  0  0  0
  7  8  4  0  0  0  0
  7 26  1  0  0  0  0
  8  9  4  0  0  0  0
  8 13  4  0  0  0  0
  9 10  4  0  0  0  0
  9 27  1  0  0  0  0
 10 11  4  0  0  0  0
 10 28  1  0  0  0  0
 11 12  4  0  0  0  0
 11 15  1  0  0  0  0
 12 13  4  0  0  0  0
 12 29  1  0  0  0  0
 16 17  2  0  0  0  0
 16 18  1  0  0  0  0
 18 30  1  0  0  0  0
 18 31  1  0  0  0  0
 18 32  1  0  0  0  0
 19 20  1  0  0  0  0
 19 33  1  0  0  0  0
 20 34  1  0  0  0  0
 20 35  1  0  0  0  0
 20 36  1  0  0  0  0
M  END
> <ConfClashScore>
0 

> <ConfOneFourInteractionScore>
-0.978366 

> <ConfScore>
0.742577 

> <ConfScorePBest>
0.00551946 

> <ConfTolerance>
1.16419 

$$$$
5FW.qm
 OpenBabel09182216093D

 36 37  0  0  0  0  0  0  0  0999 V2000
    6.2238   -1.0441   -0.2460 C   0  0  0  1  0  0  0  0  0  0  0  0
    5.3244   -3.2006    0.3568 N   0  0  0  1  0  0  0  0  0  0  0  0
    5.2956   -1.7837    0.6906 C   0  0  0  1  0  0  0  0  0  0  0  0
    5.6198   -1.5571    2.1704 C   0  0  0  1  0  0  0  0  0  0  0  0
    4.7430   -2.3580    3.0955 C   0  0  0  1  0  0  0  0  0  0  0  0
    3.8458   -3.3232    2.7448 C   0  0  0  1  0  0  0  0  0  0  0  0
    3.2222   -3.8184    3.8613 N   0  0  0  1  0  0  0  0  0  0  0  0
    3.7241   -3.1911    4.9686 C   0  0  0  1  0  0  0  0  0  0  0  0
    3.4215   -3.3552    6.3232 C   0  0  0  1  0  0  0  0  0  0  0  0
    4.0916   -2.5579    7.2254 C   0  0  0  1  0  0  0  0  0  0  0  0
    5.0305   -1.6199    6.8076 C   0  0  0  1  0  0  0  0  0  0  0  0
    5.3340   -1.4612    5.4735 C   0  0  0  1  0  0  0  0  0  0  0  0
    4.6811   -2.2608    4.5291 C   0  0  0  1  0  0  0  0  0  0  0  0
    6.8870   -0.0861    0.1492 O   0  0  0  1  0  0  0  0  0  0  0  0
    5.6532   -0.8537    7.7236 F   0  0  0  1  0  0  0  0  0  0  0  0
    6.4242   -3.9612    0.5364 C   0  0  0  1  0  0  0  0  0  0  0  0
    7.4338   -3.5020    1.0639 O   0  0  0  1  0  0  0  0  0  0  0  0
    6.3785   -5.4025    0.0676 C   0  0  0  1  0  0  0  0  0  0  0  0
    6.3020   -1.4638   -1.5187 N   0  0  0  1  0  0  0  0  0  0  0  0
    7.0431   -0.8468   -2.6087 C   0  0  0  1  0  0  0  0  0  0  0  0
    4.5168   -3.6163   -0.0112 H   0  0  0  1  0  0  0  0  0  0  0  0
    4.3045   -1.4178    0.5206 H   0  0  0  1  0  0  0  0  0  0  0  0
    5.4900   -0.5185    2.3923 H   0  0  0  1  0  0  0  0  0  0  0  0
    6.6389   -1.8344    2.3420 H   0  0  0  1  0  0  0  0  0  0  0  0
    3.6612   -3.6384    1.7710 H   0  0  0  1  0  0  0  0  0  0  0  0
    2.5284   -4.5105    3.8653 H   0  0  0  1  0  0  0  0  0  0  0  0
    2.7172   -4.0526    6.6383 H   0  0  0  1  0  0  0  0  0  0  0  0
    3.8913   -2.6596    8.2408 H   0  0  0  1  0  0  0  0  0  0  0  0
    6.0382   -0.7575    5.1725 H   0  0  0  1  0  0  0  0  0  0  0  0
    6.3325   -5.4292   -1.0010 H   0  0  0  1  0  0  0  0  0  0  0  0
    5.5125   -5.8821    0.4737 H   0  0  0  1  0  0  0  0  0  0  0  0
    7.2583   -5.9132    0.3994 H   0  0  0  1  0  0  0  0  0  0  0  0
    5.8033   -2.2781   -1.7389 H   0  0  0  1  0  0  0  0  0  0  0  0
    6.7615    0.1818   -2.6948 H   0  0  0  1  0  0  0  0  0  0  0  0
    6.8207   -1.3552   -3.5235 H   0  0  0  1  0  0  0  0  0  0  0  0
    8.0922   -0.9136   -2.4090 H   0  0  0  1  0  0  0  0  0  0  0  0
  1  3  1  0  0  0  0
  1 14  2  0  0  0  0
  1 19  1  0  0  0  0
  2  3  1  0  0  0  0
  2 16  1  0  0  0  0
  2 21  1  0  0  0  0
  3  4  1  0  0  0  0
  3 22  1  0  0  0  0
  4  5  1  0  0  0  0
  4 23  1  0  0  0  0
  4 24  1  0  0  0  0
  5  6  4  0  0  0  0
  5 13  4  0  0  0  0
  6  7  4  0  0  0  0
  6 25  1  0  0  0  0
  7  8  4  0  0  0  0
  7 26  1  0  0  0  0
  8  9  4  0  0  0  0
  8 13  4  0  0  0  0
  9 10  4  0  0  0  0
  9 27  1  0  0  0  0
 10 11  4  0  0  0  0
 10 28  1  0  0  0  0
 11 12  4  0  0  0  0
 11 15  1  0  0  0  0
 12 13  4  0  0  0  0
 12 29  1  0  0  0  0
 16 17  2  0  0  0  0
 16 18  1  0  0  0  0
 18 30  1  0  0  0  0
 18 31  1  0  0  0  0
 18 32  1  0  0  0  0
 19 20  1  0  0  0  0
 19 33  1  0  0  0  0
 20 34  1  0  0  0  0
 20 35  1  0  0  0  0
 20 36  1  0  0  0  0
M  END
> <ConfClashScore>
0 

> <ConfOneFourInteractionScore>
-0.930862 

> <ConfScore>
0.768797 

> <ConfScorePBest>
0.00541646 

> <ConfTolerance>
1.22699 

$$$$
5FW.qm
 OpenBabel09182216093D

 36 37  0  0  0  0  0  0  0  0999 V2000
    8.0656   -1.1641    2.0153 C   0  0  0  1  0  0  0  0  0  0  0  0
    7.2171   -3.3465    2.8062 N   0  0  0  1  0  0  0  0  0  0  0  0
    6.9787   -2.2214    1.9145 C   0  0  0  1  0  0  0  0  0  0  0  0
    5.6300   -1.5599    2.1660 C   0  0  0  1  0  0  0  0  0  0  0  0
    4.7475   -2.3536    3.0919 C   0  0  0  1  0  0  0  0  0  0  0  0
    3.8453   -3.3289    2.7368 C   0  0  0  1  0  0  0  0  0  0  0  0
    3.2109   -3.8263    3.8566 N   0  0  0  1  0  0  0  0  0  0  0  0
    3.7161   -3.1909    4.9752 C   0  0  0  1  0  0  0  0  0  0  0  0
    3.4156   -3.3627    6.3299 C   0  0  0  1  0  0  0  0  0  0  0  0
    4.0847   -2.5615    7.2504 C   0  0  0  1  0  0  0  0  0  0  0  0
    5.0297   -1.6260    6.7984 C   0  0  0  1  0  0  0  0  0  0  0  0
    5.3470   -1.4380    5.4666 C   0  0  0  1  0  0  0  0  0  0  0  0
    4.6798   -2.2432    4.5241 C   0  0  0  1  0  0  0  0  0  0  0  0
    8.3951   -0.5157    1.0229 O   0  0  0  1  0  0  0  0  0  0  0  0
    5.6626   -0.8689    7.7151 F   0  0  0  1  0  0  0  0  0  0  0  0
    8.1534   -4.2834    2.5499 C   0  0  0  1  0  0  0  0  0  0  0  0
    8.8708   -4.2090    1.5531 O   0  0  0  1  0  0  0  0  0  0  0  0
    8.2972   -5.4337    3.5273 C   0  0  0  1  0  0  0  0  0  0  0  0
    8.6920   -1.0449    3.1893 N   0  0  0  1  0  0  0  0  0  0  0  0
    9.9198   -0.2698    3.2870 C   0  0  0  1  0  0  0  0  0  0  0  0
    6.6787   -3.4264    3.6212 H   0  0  0  1  0  0  0  0  0  0  0  0
    6.9739   -2.5843    0.9080 H   0  0  0  1  0  0  0  0  0  0  0  0
    5.1261   -1.4469    1.2289 H   0  0  0  1  0  0  0  0  0  0  0  0
    5.7988   -0.5962    2.5993 H   0  0  0  1  0  0  0  0  0  0  0  0
    3.6666   -3.6464    1.7627 H   0  0  0  1  0  0  0  0  0  0  0  0
    2.5158   -4.5171    3.8585 H   0  0  0  1  0  0  0  0  0  0  0  0
    2.7150   -4.0661    6.6395 H   0  0  0  1  0  0  0  0  0  0  0  0
    3.8862   -2.6550    8.2670 H   0  0  0  1  0  0  0  0  0  0  0  0
    6.0502   -0.7304    5.1725 H   0  0  0  1  0  0  0  0  0  0  0  0
    8.8742   -5.1159    4.3705 H   0  0  0  1  0  0  0  0  0  0  0  0
    8.7910   -6.2514    3.0453 H   0  0  0  1  0  0  0  0  0  0  0  0
    7.3278   -5.7454    3.8559 H   0  0  0  1  0  0  0  0  0  0  0  0
    8.3239   -1.4803    3.9864 H   0  0  0  1  0  0  0  0  0  0  0  0
   10.0895    0.2482    2.3663 H   0  0  0  1  0  0  0  0  0  0  0  0
   10.7414   -0.9268    3.4830 H   0  0  0  1  0  0  0  0  0  0  0  0
    9.8314    0.4390    4.0837 H   0  0  0  1  0  0  0  0  0  0  0  0
  1  3  1  0  0  0  0
  1 14  2  0  0  0  0
  1 19  1  0  0  0  0
  2  3  1  0  0  0  0
  2 16  1  0  0  0  0
  2 21  1  0  0  0  0
  3  4  1  0  0  0  0
  3 22  1  0  0  0  0
  4  5  1  0  0  0  0
  4 23  1  0  0  0  0
  4 24  1  0  0  0  0
  5  6  4  0  0  0  0
  5 13  4  0  0  0  0
  6  7  4  0  0  0  0
  6 25  1  0  0  0  0
  7  8  4  0  0  0  0
  7 26  1  0  0  0  0
  8  9  4  0  0  0  0
  8 13  4  0  0  0  0
  9 10  4  0  0  0  0
  9 27  1  0  0  0  0
 10 11  4  0  0  0  0
 10 28  1  0  0  0  0
 11 12  4  0  0  0  0
 11 15  1  0  0  0  0
 12 13  4  0  0  0  0
 12 29  1  0  0  0  0
 16 17  2  0  0  0  0
 16 18  1  0  0  0  0
 18 30  1  0  0  0  0
 18 31  1  0  0  0  0
 18 32  1  0  0  0  0
 19 20  1  0  0  0  0
 19 33  1  0  0  0  0
 20 34  1  0  0  0  0
 20 35  1  0  0  0  0
 20 36  1  0  0  0  0
M  END
> <ConfClashScore>
0 

> <ConfOneFourInteractionScore>
-0.937067 

> <ConfScore>
0.794358 

> <ConfScorePBest>
0.00531345 

> <ConfTolerance>
1.44358 

$$$$
5FW.qm
 OpenBabel09182216093D

 36 37  0  0  0  0  0  0  0  0999 V2000
    6.9617   -3.5339    1.3745 C   0  0  0  1  0  0  0  0  0  0  0  0
    4.9577   -2.8229    0.1688 N   0  0  0  1  0  0  0  0  0  0  0  0
    6.0961   -2.3534    0.9443 C   0  0  0  1  0  0  0  0  0  0  0  0
    5.6350   -1.5554    2.1603 C   0  0  0  1  0  0  0  0  0  0  0  0
    4.7470   -2.3541    3.0922 C   0  0  0  1  0  0  0  0  0  0  0  0
    3.8447   -3.3294    2.7372 C   0  0  0  1  0  0  0  0  0  0  0  0
    3.2105   -3.8267    3.8571 N   0  0  0  1  0  0  0  0  0  0  0  0
    3.7157   -3.1913    4.9756 C   0  0  0  1  0  0  0  0  0  0  0  0
    3.4154   -3.3629    6.3304 C   0  0  0  1  0  0  0  0  0  0  0  0
    4.0846   -2.5616    7.2508 C   0  0  0  1  0  0  0  0  0  0  0  0
    5.0295   -1.6262    6.7986 C   0  0  0  1  0  0  0  0  0  0  0  0
    5.3467   -1.4383    5.4668 C   0  0  0  1  0  0  0  0  0  0  0  0
    4.6794   -2.2435    4.5244 C   0  0  0  1  0  0  0  0  0  0  0  0
    6.5187   -4.5727    1.8269 O   0  0  0  1  0  0  0  0  0  0  0  0
    5.6625   -0.8690    7.7152 F   0  0  0  1  0  0  0  0  0  0  0  0
    5.0188   -3.7448   -0.8042 C   0  0  0  1  0  0  0  0  0  0  0  0
    6.0583   -4.3267   -1.1113 O   0  0  0  1  0  0  0  0  0  0  0  0
    3.7072   -4.0378   -1.5215 C   0  0  0  1  0  0  0  0  0  0  0  0
    8.2781   -3.3754    1.2290 N   0  0  0  1  0  0  0  0  0  0  0  0
    9.2881   -4.3015    1.7191 C   0  0  0  1  0  0  0  0  0  0  0  0
    4.0804   -2.4366    0.3725 H   0  0  0  1  0  0  0  0  0  0  0  0
    6.6928   -1.7100    0.3319 H   0  0  0  1  0  0  0  0  0  0  0  0
    5.0894   -0.7003    1.8196 H   0  0  0  1  0  0  0  0  0  0  0  0
    6.4986   -1.2346    2.7045 H   0  0  0  1  0  0  0  0  0  0  0  0
    3.6659   -3.6469    1.7632 H   0  0  0  1  0  0  0  0  0  0  0  0
    2.5154   -4.5175    3.8591 H   0  0  0  1  0  0  0  0  0  0  0  0
    2.7148   -4.0663    6.6402 H   0  0  0  1  0  0  0  0  0  0  0  0
    3.8861   -2.6551    8.2674 H   0  0  0  1  0  0  0  0  0  0  0  0
    6.0498   -0.7307    5.1726 H   0  0  0  1  0  0  0  0  0  0  0  0
    3.0213   -4.4948   -0.8392 H   0  0  0  1  0  0  0  0  0  0  0  0
    3.8897   -4.7010   -2.3411 H   0  0  0  1  0  0  0  0  0  0  0  0
    3.2895   -3.1234   -1.8880 H   0  0  0  1  0  0  0  0  0  0  0  0
    8.5886   -2.5749    0.7564 H   0  0  0  1  0  0  0  0  0  0  0  0
    9.3193   -4.2630    2.7880 H   0  0  0  1  0  0  0  0  0  0  0  0
   10.2442   -4.0277    1.3246 H   0  0  0  1  0  0  0  0  0  0  0  0
    9.0432   -5.2947    1.4052 H   0  0  0  1  0  0  0  0  0  0  0  0
  1  3  1  0  0  0  0
  1 14  2  0  0  0  0
  1 19  1  0  0  0  0
  2  3  1  0  0  0  0
  2 16  1  0  0  0  0
  2 21  1  0  0  0  0
  3  4  1  0  0  0  0
  3 22  1  0  0  0  0
  4  5  1  0  0  0  0
  4 23  1  0  0  0  0
  4 24  1  0  0  0  0
  5  6  4  0  0  0  0
  5 13  4  0  0  0  0
  6  7  4  0  0  0  0
  6 25  1  0  0  0  0
  7  8  4  0  0  0  0
  7 26  1  0  0  0  0
  8  9  4  0  0  0  0
  8 13  4  0  0  0  0
  9 10  4  0  0  0  0
  9 27  1  0  0  0  0
 10 11  4  0  0  0  0
 10 28  1  0  0  0  0
 11 12  4  0  0  0  0
 11 15  1  0  0  0  0
 12 13  4  0  0  0  0
 12 29  1  0  0  0  0
 16 17  2  0  0  0  0
 16 18  1  0  0  0  0
 18 30  1  0  0  0  0
 18 31  1  0  0  0  0
 18 32  1  0  0  0  0
 19 20  1  0  0  0  0
 19 33  1  0  0  0  0
 20 34  1  0  0  0  0
 20 35  1  0  0  0  0
 20 36  1  0  0  0  0
M  END
> <ConfClashScore>
0 

> <ConfOneFourInteractionScore>
-0.968652 

> <ConfScore>
0.799408 

> <ConfScorePBest>
0.00521045 

> <ConfTolerance>
1.27438 

$$$$
5FW.qm
 OpenBabel09182216093D

 36 37  0  0  0  0  0  0  0  0999 V2000
    3.7928   -0.2151    1.0362 C   0  0  0  1  0  0  0  0  0  0  0  0
    4.7179    0.5016    3.1501 N   0  0  0  1  0  0  0  0  0  0  0  0
    5.0359   -0.1792    1.9038 C   0  0  0  1  0  0  0  0  0  0  0  0
    5.6300   -1.5599    2.1660 C   0  0  0  1  0  0  0  0  0  0  0  0
    4.7475   -2.3536    3.0919 C   0  0  0  1  0  0  0  0  0  0  0  0
    3.8453   -3.3289    2.7368 C   0  0  0  1  0  0  0  0  0  0  0  0
    3.2109   -3.8263    3.8566 N   0  0  0  1  0  0  0  0  0  0  0  0
    3.7161   -3.1909    4.9752 C   0  0  0  1  0  0  0  0  0  0  0  0
    3.4156   -3.3627    6.3299 C   0  0  0  1  0  0  0  0  0  0  0  0
    4.0847   -2.5615    7.2504 C   0  0  0  1  0  0  0  0  0  0  0  0
    5.0297   -1.6260    6.7984 C   0  0  0  1  0  0  0  0  0  0  0  0
    5.3470   -1.4380    5.4666 C   0  0  0  1  0  0  0  0  0  0  0  0
    4.6798   -2.2432    4.5241 C   0  0  0  1  0  0  0  0  0  0  0  0
    3.8610   -0.0700   -0.1814 O   0  0  0  1  0  0  0  0  0  0  0  0
    5.6626   -0.8689    7.7151 F   0  0  0  1  0  0  0  0  0  0  0  0
    5.6552    1.1087    3.8950 C   0  0  0  1  0  0  0  0  0  0  0  0
    6.8463    1.1741    3.6026 O   0  0  0  1  0  0  0  0  0  0  0  0
    5.1143    1.7290    5.1685 C   0  0  0  1  0  0  0  0  0  0  0  0
    2.6417   -0.4120    1.6809 N   0  0  0  1  0  0  0  0  0  0  0  0
    1.3711   -0.5372    0.9825 C   0  0  0  1  0  0  0  0  0  0  0  0
    3.7870    0.5174    3.4562 H   0  0  0  1  0  0  0  0  0  0  0  0
    5.7751    0.3952    1.3856 H   0  0  0  1  0  0  0  0  0  0  0  0
    6.5957   -1.4472    2.6127 H   0  0  0  1  0  0  0  0  0  0  0  0
    5.7248   -2.0832    1.2375 H   0  0  0  1  0  0  0  0  0  0  0  0
    3.6666   -3.6464    1.7627 H   0  0  0  1  0  0  0  0  0  0  0  0
    2.5158   -4.5171    3.8585 H   0  0  0  1  0  0  0  0  0  0  0  0
    2.7150   -4.0661    6.6395 H   0  0  0  1  0  0  0  0  0  0  0  0
    3.8862   -2.6550    8.2670 H   0  0  0  1  0  0  0  0  0  0  0  0
    6.0502   -0.7304    5.1725 H   0  0  0  1  0  0  0  0  0  0  0  0
    4.2238    1.2154    5.4656 H   0  0  0  1  0  0  0  0  0  0  0  0
    4.8896    2.7606    4.9949 H   0  0  0  1  0  0  0  0  0  0  0  0
    5.8476    1.6486    5.9435 H   0  0  0  1  0  0  0  0  0  0  0  0
    2.6521   -0.4746    2.6588 H   0  0  0  1  0  0  0  0  0  0  0  0
    0.5822   -0.1766    1.6089 H   0  0  0  1  0  0  0  0  0  0  0  0
    1.1953   -1.5653    0.7440 H   0  0  0  1  0  0  0  0  0  0  0  0
    1.4017    0.0384    0.0810 H   0  0  0  1  0  0  0  0  0  0  0  0
  1  3  1  0  0  0  0
  1 14  2  0  0  0  0
  1 19  1  0  0  0  0
  2  3  1  0  0  0  0
  2 16  1  0  0  0  0
  2 21  1  0  0  0  0
  3  4  1  0  0  0  0
  3 22  1  0  0  0  0
  4  5  1  0  0  0  0
  4 23  1  0  0  0  0
  4 24  1  0  0  0  0
  5  6  4  0  0  0  0
  5 13  4  0  0  0  0
  6  7  4  0  0  0  0
  6 25  1  0  0  0  0
  7  8  4  0  0  0  0
  7 26  1  0  0  0  0
  8  9  4  0  0  0  0
  8 13  4  0  0  0  0
  9 10  4  0  0  0  0
  9 27  1  0  0  0  0
 10 11  4  0  0  0  0
 10 28  1  0  0  0  0
 11 12  4  0  0  0  0
 11 15  1  0  0  0  0
 12 13  4  0  0  0  0
 12 29  1  0  0  0  0
 16 17  2  0  0  0  0
 16 18  1  0  0  0  0
 18 30  1  0  0  0  0
 18 31  1  0  0  0  0
 18 32  1  0  0  0  0
 19 20  1  0  0  0  0
 19 33  1  0  0  0  0
 20 34  1  0  0  0  0
 20 35  1  0  0  0  0
 20 36  1  0  0  0  0
M  END
> <ConfClashScore>
0 

> <ConfOneFourInteractionScore>
-0.936632 

> <ConfScore>
0.835673 

> <ConfScorePBest>
0.00510745 

> <ConfTolerance>
1.47097 

$$$$
5FW.qm
 OpenBabel09182216093D

 36 37  0  0  0  0  0  0  0  0999 V2000
    3.8155    0.0939    2.5826 C   0  0  0  1  0  0  0  0  0  0  0  0
    6.1976    0.7966    2.3774 N   0  0  0  1  0  0  0  0  0  0  0  0
    5.1673   -0.1282    1.9183 C   0  0  0  1  0  0  0  0  0  0  0  0
    5.6198   -1.5571    2.1704 C   0  0  0  1  0  0  0  0  0  0  0  0
    4.7430   -2.3580    3.0955 C   0  0  0  1  0  0  0  0  0  0  0  0
    3.8458   -3.3232    2.7448 C   0  0  0  1  0  0  0  0  0  0  0  0
    3.2222   -3.8184    3.8613 N   0  0  0  1  0  0  0  0  0  0  0  0
    3.7241   -3.1911    4.9686 C   0  0  0  1  0  0  0  0  0  0  0  0
    3.4215   -3.3552    6.3232 C   0  0  0  1  0  0  0  0  0  0  0  0
    4.0916   -2.5579    7.2254 C   0  0  0  1  0  0  0  0  0  0  0  0
    5.0305   -1.6199    6.8076 C   0  0  0  1  0  0  0  0  0  0  0  0
    5.3340   -1.4612    5.4735 C   0  0  0  1  0  0  0  0  0  0  0  0
    4.6811   -2.2608    4.5291 C   0  0  0  1  0  0  0  0  0  0  0  0
    3.7082    0.3901    3.7586 O   0  0  0  1  0  0  0  0  0  0  0  0
    5.6532   -0.8537    7.7236 F   0  0  0  1  0  0  0  0  0  0  0  0
    6.3580    2.0226    1.8375 C   0  0  0  1  0  0  0  0  0  0  0  0
    5.6265    2.4186    0.9340 O   0  0  0  1  0  0  0  0  0  0  0  0
    7.4699    2.9000    2.3789 C   0  0  0  1  0  0  0  0  0  0  0  0
    2.6993   -0.0404    1.8503 N   0  0  0  1  0  0  0  0  0  0  0  0
    1.3937    0.0233    2.4901 C   0  0  0  1  0  0  0  0  0  0  0  0
    6.7940    0.5177    3.1033 H   0  0  0  1  0  0  0  0  0  0  0  0
    5.0404   -0.0062    0.8629 H   0  0  0  1  0  0  0  0  0  0  0  0
    6.6018   -1.5225    2.5940 H   0  0  0  1  0  0  0  0  0  0  0  0
    5.6548   -2.0633    1.2283 H   0  0  0  1  0  0  0  0  0  0  0  0
    3.6612   -3.6384    1.7710 H   0  0  0  1  0  0  0  0  0  0  0  0
    2.5284   -4.5105    3.8653 H   0  0  0  1  0  0  0  0  0  0  0  0
    2.7172   -4.0526    6.6383 H   0  0  0  1  0  0  0  0  0  0  0  0
    3.8913   -2.6596    8.2408 H   0  0  0  1  0  0  0  0  0  0  0  0
    6.0382   -0.7575    5.1725 H   0  0  0  1  0  0  0  0  0  0  0  0
    7.0463    3.7511    2.8698 H   0  0  0  1  0  0  0  0  0  0  0  0
    8.0912    3.2268    1.5715 H   0  0  0  1  0  0  0  0  0  0  0  0
    8.0568    2.3411    3.0776 H   0  0  0  1  0  0  0  0  0  0  0  0
    2.7633   -0.1817    0.8827 H   0  0  0  1  0  0  0  0  0  0  0  0
    1.4836   -0.2697    3.5152 H   0  0  0  1  0  0  0  0  0  0  0  0
    0.7183   -0.6379    1.9884 H   0  0  0  1  0  0  0  0  0  0  0  0
    1.0192    1.0242    2.4370 H   0  0  0  1  0  0  0  0  0  0  0  0
  1  3  1  0  0  0  0
  1 14  2  0  0  0  0
  1 19  1  0  0  0  0
  2  3  1  0  0  0  0
  2 16  1  0  0  0  0
  2 21  1  0  0  0  0
  3  4  1  0  0  0  0
  3 22  1  0  0  0  0
  4  5  1  0  0  0  0
  4 23  1  0  0  0  0
  4 24  1  0  0  0  0
  5  6  4  0  0  0  0
  5 13  4  0  0  0  0
  6  7  4  0  0  0  0
  6 25  1  0  0  0  0
  7  8  4  0  0  0  0
  7 26  1  0  0  0  0
  8  9  4  0  0  0  0
  8 13  4  0  0  0  0
  9 10  4  0  0  0  0
  9 27  1  0  0  0  0
 10 11  4  0  0  0  0
 10 28  1  0  0  0  0
 11 12  4  0  0  0  0
 11 15  1  0  0  0  0
 12 13  4  0  0  0  0
 12 29  1  0  0  0  0
 16 17  2  0  0  0  0
 16 18  1  0  0  0  0
 18 30  1  0  0  0  0
 18 31  1  0  0  0  0
 18 32  1  0  0  0  0
 19 20  1  0  0  0  0
 19 33  1  0  0  0  0
 20 34  1  0  0  0  0
 20 35  1  0  0  0  0
 20 36  1  0  0  0  0
M  END
> <ConfClashScore>
0 

> <ConfOneFourInteractionScore>
-0.967834 

> <ConfScore>
0.875688 

> <ConfScorePBest>
0.00500445 

> <ConfTolerance>
2.05737 

$$$$
5FW.qm
 OpenBabel09182216093D

 36 37  0  0  0  0  0  0  0  0999 V2000
    6.2256    0.5783    0.9847 C   0  0  0  1  0  0  0  0  0  0  0  0
    3.9744    0.1695    1.8827 N   0  0  0  1  0  0  0  0  0  0  0  0
    5.3993   -0.0679    2.0844 C   0  0  0  1  0  0  0  0  0  0  0  0
    5.6317   -1.5584    2.1640 C   0  0  0  1  0  0  0  0  0  0  0  0
    4.7473   -2.3538    3.0920 C   0  0  0  1  0  0  0  0  0  0  0  0
    3.8451   -3.3291    2.7369 C   0  0  0  1  0  0  0  0  0  0  0  0
    3.2108   -3.8264    3.8568 N   0  0  0  1  0  0  0  0  0  0  0  0
    3.7159   -3.1911    4.9753 C   0  0  0  1  0  0  0  0  0  0  0  0
    3.4156   -3.3627    6.3301 C   0  0  0  1  0  0  0  0  0  0  0  0
    4.0847   -2.5615    7.2505 C   0  0  0  1  0  0  0  0  0  0  0  0
    5.0296   -1.6260    6.7985 C   0  0  0  1  0  0  0  0  0  0  0  0
    5.3469   -1.4381    5.4667 C   0  0  0  1  0  0  0  0  0  0  0  0
    4.6797   -2.2433    4.5242 C   0  0  0  1  0  0  0  0  0  0  0  0
    5.7705    0.7367   -0.1450 O   0  0  0  1  0  0  0  0  0  0  0  0
    5.6625   -0.8690    7.7151 F   0  0  0  1  0  0  0  0  0  0  0  0
    3.2944   -0.1550    0.7820 C   0  0  0  1  0  0  0  0  0  0  0  0
    3.8134   -0.7062   -0.1878 O   0  0  0  1  0  0  0  0  0  0  0  0
    1.8242    0.1975    0.7903 C   0  0  0  1  0  0  0  0  0  0  0  0
    7.4600    0.9542    1.3310 N   0  0  0  1  0  0  0  0  0  0  0  0
    8.4096    1.4880    0.3660 C   0  0  0  1  0  0  0  0  0  0  0  0
    3.4792    0.5998    2.6108 H   0  0  0  1  0  0  0  0  0  0  0  0
    5.6940    0.3620    3.0189 H   0  0  0  1  0  0  0  0  0  0  0  0
    6.6432   -1.7083    2.4790 H   0  0  0  1  0  0  0  0  0  0  0  0
    5.5017   -1.9557    1.1791 H   0  0  0  1  0  0  0  0  0  0  0  0
    3.6664   -3.6466    1.7628 H   0  0  0  1  0  0  0  0  0  0  0  0
    2.5157   -4.5173    3.8587 H   0  0  0  1  0  0  0  0  0  0  0  0
    2.7150   -4.0662    6.6398 H   0  0  0  1  0  0  0  0  0  0  0  0
    3.8862   -2.6551    8.2671 H   0  0  0  1  0  0  0  0  0  0  0  0
    6.0500   -0.7305    5.1726 H   0  0  0  1  0  0  0  0  0  0  0  0
    1.6459    0.9688    1.5102 H   0  0  0  1  0  0  0  0  0  0  0  0
    1.2514   -0.6690    1.0470 H   0  0  0  1  0  0  0  0  0  0  0  0
    1.5348    0.5422   -0.1804 H   0  0  0  1  0  0  0  0  0  0  0  0
    7.7356    0.8675    2.2675 H   0  0  0  1  0  0  0  0  0  0  0  0
    9.3962    1.1572    0.6153 H   0  0  0  1  0  0  0  0  0  0  0  0
    8.3762    2.5572    0.3870 H   0  0  0  1  0  0  0  0  0  0  0  0
    8.1546    1.1418   -0.6138 H   0  0  0  1  0  0  0  0  0  0  0  0
  1  3  1  0  0  0  0
  1 14  2  0  0  0  0
  1 19  1  0  0  0  0
  2  3  1  0  0  0  0
  2 16  1  0  0  0  0
  2 21  1  0  0  0  0
  3  4  1  0  0  0  0
  3 22  1  0  0  0  0
  4  5  1  0  0  0  0
  4 23  1  0  0  0  0
  4 24  1  0  0  0  0
  5  6  4  0  0  0  0
  5 13  4  0  0  0  0
  6  7  4  0  0  0  0
  6 25  1  0  0  0  0
  7  8  4  0  0  0  0
  7 26  1  0  0  0  0
  8  9  4  0  0  0  0
  8 13  4  0  0  0  0
  9 10  4  0  0  0  0
  9 27  1  0  0  0  0
 10 11  4  0  0  0  0
 10 28  1  0  0  0  0
 11 12  4  0  0  0  0
 11 15  1  0  0  0  0
 12 13  4  0  0  0  0
 12 29  1  0  0  0  0
 16 17  2  0  0  0  0
 16 18  1  0  0  0  0
 18 30  1  0  0  0  0
 18 31  1  0  0  0  0
 18 32  1  0  0  0  0
 19 20  1  0  0  0  0
 19 33  1  0  0  0  0
 20 34  1  0  0  0  0
 20 35  1  0  0  0  0
 20 36  1  0  0  0  0
M  END
> <ConfClashScore>
0 

> <ConfOneFourInteractionScore>
-0.984592 

> <ConfScore>
0.923093 

> <ConfScorePBest>
0.00490145 

> <ConfTolerance>
2.02239 

$$$$
