@<TRIPOS>MOLECULE
5FW.qm
   36    37     1     0     0
SMALL
resp


@<TRIPOS>ATOM
      1 C1           5.8480     0.5510     0.7860 C.2        1 5FW.      0.280923
      2 N1           3.6470    -0.3700     1.1470 N.am       1 5FW.     -0.309993
      3 C2           4.9380    -0.1680     1.7820 C.3        1 5FW.     -0.004929
      4 C3           5.6000    -1.5260     2.1630 C.3        1 5FW.     -0.033521
      5 C4           4.7620    -2.3490     3.0890 C.2        1 5FW.     -0.115870
      6 C5           3.8490    -3.3120     2.7280 C.2        1 5FW.     -0.203945
      7 N2           3.2030    -3.8030     3.8440 N.pl3      1 5FW.     -0.190922
      8 C6           3.7110    -3.1760     4.9660 C.ar       1 5FW.      0.104915
      9 C7           3.4020    -3.3460     6.3190 C.ar       1 5FW.     -0.262427
     10 C8           4.0770    -2.5550     7.2440 C.ar       1 5FW.     -0.124945
     11 C9           5.0360    -1.6310     6.7980 C.ar       1 5FW.      0.143641
     12 C10          5.3620    -1.4450     5.4680 C.ar       1 5FW.     -0.159073
     13 C11          4.6890    -2.2400     4.5210 C.ar       1 5FW.      0.043003
     14 O1           5.8920     0.1830    -0.3970 O.2        1 5FW.     -0.447062
     15 F1           5.6710    -0.8780     7.7400 F          1 5FW.     -0.163338
     16 C12          2.4660    -0.2660     1.8100 C.2        1 5FW.      0.459300
     17 O2           2.3870     0.1430     2.9750 O.2        1 5FW.     -0.476366
     18 C13          1.2300    -0.6350     1.0140 C.3        1 5FW.     -0.274497
     19 N3           6.6170     1.5460     1.2700 N.am       1 5FW.     -0.187395
     20 C14          7.5640     2.2530     0.4150 C.3        1 5FW.     -0.338630
     21 H1           3.6700    -0.7040     0.1920 H          1 5FW.      0.262434
     22 H2           4.7630     0.4230     2.6830 H          1 5FW.      0.074470
     23 H3           6.5800    -1.3170     2.6100 H          1 5FW.      0.062384
     24 H4           5.7880    -2.0700     1.2300 H          1 5FW.      0.062384
     25 H5           3.6040    -3.6910     1.7450 H          1 5FW.      0.170903
     26 H6           2.5840    -4.6020     3.8510 H          1 5FW.      0.289733
     27 H7           2.6580    -4.0680     6.6430 H          1 5FW.      0.154822
     28 H8           3.8810    -2.6390     8.3080 H          1 5FW.      0.130906
     29 H9           6.1140    -0.7140     5.1840 H          1 5FW.      0.126985
     30 H10          0.5450    -1.1810     1.6680 H          1 5FW.      0.082613
     31 H11          1.4460    -1.2440     0.1310 H          1 5FW.      0.082613
     32 H12          0.7230     0.2820     0.6910 H          1 5FW.      0.082613
     33 H13          6.5220     1.8360     2.2350 H          1 5FW.      0.262073
     34 H14          8.3020     1.5590    -0.0020 H          1 5FW.      0.138733
     35 H15          8.0830     3.0060     1.0100 H          1 5FW.      0.138733
     36 H16          7.0470     2.7480    -0.4130 H          1 5FW.      0.138733
@<TRIPOS>BOND
     1     1     3 1   
     2     1    14 2   
     3     1    19 am  
     4     2     3 1   
     5     2    16 am  
     6     2    21 1   
     7     3     4 1   
     8     3    22 1   
     9     4     5 1   
    10     4    23 1   
    11     4    24 1   
    12     5     6 2   
    13     5    13 1   
    14     6     7 1   
    15     6    25 1   
    16     7     8 1   
    17     7    26 1   
    18     8     9 ar  
    19     8    13 ar  
    20     9    10 ar  
    21     9    27 1   
    22    10    11 ar  
    23    10    28 1   
    24    11    12 ar  
    25    11    15 1   
    26    12    13 ar  
    27    12    29 1   
    28    16    17 2   
    29    16    18 1   
    30    18    30 1   
    31    18    31 1   
    32    18    32 1   
    33    19    20 1   
    34    19    33 1   
    35    20    34 1   
    36    20    35 1   
    37    20    36 1   
@<TRIPOS>SUBSTRUCTURE
     1 5FW.        1 TEMP              0 ****  ****    0 ROOT
