


 26 27  0  0  0  0  0  0  0  0999 V2000
    5.6040    0.6559    0.8479 C   0  0  0  1  0  0  0  0  0  0  0  0
    3.5723   -0.6060    1.1419 N   0  0  0  1  0  0  0  0  0  0  0  0
    4.8036   -0.2144    1.7546 C   0  0  0  1  0  0  0  0  0  0  0  0
    5.5637   -1.4677    2.1570 C   0  0  0  1  0  0  0  0  0  0  0  0
    4.8184   -2.3153    3.1297 C   0  0  0  1  0  0  0  0  0  0  0  0
    4.0371   -3.3880    2.7814 C   0  0  0  1  0  0  0  0  0  0  0  0
    3.4755   -3.9410    3.9224 N   0  0  0  1  0  0  0  0  0  0  0  0
    3.9171   -3.2305    5.0209 C   0  0  0  1  0  0  0  0  0  0  0  0
    3.6542   -3.4156    6.3744 C   0  0  0  1  0  0  0  0  0  0  0  0
    4.2318   -2.5430    7.2680 C   0  0  0  1  0  0  0  0  0  0  0  0
    5.0675   -1.5100    6.8287 C   0  0  0  1  0  0  0  0  0  0  0  0
    5.3334   -1.3318    5.4950 C   0  0  0  1  0  0  0  0  0  0  0  0
    4.7600   -2.2000    4.5561 C   0  0  0  1  0  0  0  0  0  0  0  0
    5.1818    0.8571   -0.2789 O   0  0  0  1  0  0  0  0  0  0  0  0
    5.6333   -0.6653    7.6861 F   0  0  0  1  0  0  0  0  0  0  0  0
    6.4983    1.0802    1.1669 H   0  0  0  1  0  0  0  0  0  0  0  0
    3.3791   -1.5408    1.3640 H   0  0  0  1  0  0  0  0  0  0  0  0
    3.6465   -0.5102    0.1695 H   0  0  0  1  0  0  0  0  0  0  0  0
    4.5890    0.3386    2.6451 H   0  0  0  1  0  0  0  0  0  0  0  0
    6.4920   -1.1751    2.6015 H   0  0  0  1  0  0  0  0  0  0  0  0
    5.7555   -2.0467    1.2778 H   0  0  0  1  0  0  0  0  0  0  0  0
    3.8889   -3.7331    1.8116 H   0  0  0  1  0  0  0  0  0  0  0  0
    2.8666   -4.7085    3.9453 H   0  0  0  1  0  0  0  0  0  0  0  0
    3.0404   -4.1892    6.7006 H   0  0  0  1  0  0  0  0  0  0  0  0
    4.0444   -2.6528    8.2851 H   0  0  0  1  0  0  0  0  0  0  0  0
    5.9554   -0.5589    5.1831 H   0  0  0  1  0  0  0  0  0  0  0  0
  1  3  1  0  0  0  0
  1 14  2  0  0  0  0
  1 16  1  0  0  0  0
  2  3  1  0  0  0  0
  2 17  1  0  0  0  0
  2 18  1  0  0  0  0
  3  4  1  0  0  0  0
  3 19  1  0  0  0  0
  4  5  1  0  0  0  0
  4 20  1  0  0  0  0
  4 21  1  0  0  0  0
  5  6  2  0  0  0  0
  5 13  1  0  0  0  0
  6  7  1  0  0  0  0
  6 22  1  0  0  0  0
  7  8  1  0  0  0  0
  7 23  1  0  0  0  0
  8  9  1  0  0  0  0
  8 13  2  0  0  0  0
  9 10  2  0  0  0  0
  9 24  1  0  0  0  0
 10 11  1  0  0  0  0
 10 25  1  0  0  0  0
 11 12  2  0  0  0  0
 11 15  1  0  0  0  0
 12 13  1  0  0  0  0
 12 26  1  0  0  0  0
M  END
$$$$



 31 32  0  0  0  0  0  0  0  0999 V2000
    5.6078    0.6565    0.8495 C   0  0  0  1  0  0  0  0  0  0  0  0
    3.5535   -0.6112    1.1317 N   0  0  0  1  0  0  0  0  0  0  0  0
    4.8066   -0.2135    1.7557 C   0  0  0  1  0  0  0  0  0  0  0  0
    5.5658   -1.4674    2.1580 C   0  0  0  1  0  0  0  0  0  0  0  0
    4.8197   -2.3147    3.1303 C   0  0  0  1  0  0  0  0  0  0  0  0
    4.0379   -3.3869    2.7816 C   0  0  0  1  0  0  0  0  0  0  0  0
    3.4757   -3.9399    3.9222 N   0  0  0  1  0  0  0  0  0  0  0  0
    3.9173   -3.2298    5.0211 C   0  0  0  1  0  0  0  0  0  0  0  0
    3.6538   -3.4151    6.3744 C   0  0  0  1  0  0  0  0  0  0  0  0
    4.2317   -2.5431    7.2684 C   0  0  0  1  0  0  0  0  0  0  0  0
    5.0681   -1.5105    6.8296 C   0  0  0  1  0  0  0  0  0  0  0  0
    5.3345   -1.3322    5.4961 C   0  0  0  1  0  0  0  0  0  0  0  0
    4.7610   -2.1998    4.5567 C   0  0  0  1  0  0  0  0  0  0  0  0
    5.1861    0.8582   -0.2774 O   0  0  0  1  0  0  0  0  0  0  0  0
    5.6342   -0.6663    7.6874 F   0  0  0  1  0  0  0  0  0  0  0  0
    2.4099    0.0372    1.4352 C   0  0  0  1  0  0  0  0  0  0  0  0
    2.4037    0.9771    2.2291 O   0  0  0  1  0  0  0  0  0  0  0  0
    1.1292   -0.4262    0.7687 C   0  0  0  1  0  0  0  0  0  0  0  0
    6.5023    1.0803    1.1689 H   0  0  0  1  0  0  0  0  0  0  0  0
    3.5402   -1.3515    0.4897 H   0  0  0  1  0  0  0  0  0  0  0  0
    4.5921    0.3394    2.6463 H   0  0  0  1  0  0  0  0  0  0  0  0
    6.4941   -1.1754    2.6029 H   0  0  0  1  0  0  0  0  0  0  0  0
    5.7576   -2.0462    1.2788 H   0  0  0  1  0  0  0  0  0  0  0  0
    3.8898   -3.7317    1.8116 H   0  0  0  1  0  0  0  0  0  0  0  0
    2.8663   -4.7070    3.9447 H   0  0  0  1  0  0  0  0  0  0  0  0
    3.0395   -4.1884    6.7002 H   0  0  0  1  0  0  0  0  0  0  0  0
    4.0439   -2.6530    8.2854 H   0  0  0  1  0  0  0  0  0  0  0  0
    5.9571   -0.5595    5.1845 H   0  0  0  1  0  0  0  0  0  0  0  0
    0.8159    0.3032    0.0512 H   0  0  0  1  0  0  0  0  0  0  0  0
    0.3663   -0.5487    1.5089 H   0  0  0  1  0  0  0  0  0  0  0  0
    1.3018   -1.3600    0.2756 H   0  0  0  1  0  0  0  0  0  0  0  0
  1  3  1  0  0  0  0
  1 14  2  0  0  0  0
  1 19  1  0  0  0  0
  2  3  1  0  0  0  0
  2 16  1  0  0  0  0
  2 20  1  0  0  0  0
  3  4  1  0  0  0  0
  3 21  1  0  0  0  0
  4  5  1  0  0  0  0
  4 22  1  0  0  0  0
  4 23  1  0  0  0  0
  5  6  2  0  0  0  0
  5 13  1  0  0  0  0
  6  7  1  0  0  0  0
  6 24  1  0  0  0  0
  7  8  1  0  0  0  0
  7 25  1  0  0  0  0
  8  9  1  0  0  0  0
  8 13  2  0  0  0  0
  9 10  2  0  0  0  0
  9 26  1  0  0  0  0
 10 11  1  0  0  0  0
 10 27  1  0  0  0  0
 11 12  2  0  0  0  0
 11 15  1  0  0  0  0
 12 13  1  0  0  0  0
 12 28  1  0  0  0  0
 16 17  2  0  0  0  0
 16 18  1  0  0  0  0
 18 29  1  0  0  0  0
 18 30  1  0  0  0  0
 18 31  1  0  0  0  0
M  END
> <BCLConfClusterSize>
1

> <ConfClashScore>
0 

> <ConfOneFourInteractionScore>
-0.98382 

> <ConfScore>
-0.0275441 

> <ConfScorePBest>
1 

> <SampleByParts>
1 15 16 17 

$$$$



 36 37  0  0  0  0  0  0  0  0999 V2000
    5.5910    0.6592    0.8215 C   0  0  0  1  0  0  0  0  0  0  0  0
    3.5452   -0.6174    1.1350 N   0  0  0  1  0  0  0  0  0  0  0  0
    4.7774   -0.2257    1.7458 C   0  0  0  1  0  0  0  0  0  0  0  0
    5.5376   -1.4789    2.1480 C   0  0  0  1  0  0  0  0  0  0  0  0
    4.7933   -2.3257    3.1223 C   0  0  0  1  0  0  0  0  0  0  0  0
    4.0113   -3.3984    2.7757 C   0  0  0  1  0  0  0  0  0  0  0  0
    3.4511   -3.9506    3.9178 N   0  0  0  1  0  0  0  0  0  0  0  0
    3.8942   -3.2394    5.0153 C   0  0  0  1  0  0  0  0  0  0  0  0
    3.6330   -3.4236    6.3691 C   0  0  0  1  0  0  0  0  0  0  0  0
    4.2119   -2.5505    7.2615 C   0  0  0  1  0  0  0  0  0  0  0  0
    5.0473   -1.5181    6.8204 C   0  0  0  1  0  0  0  0  0  0  0  0
    5.3116   -1.3408    5.4863 C   0  0  0  1  0  0  0  0  0  0  0  0
    4.7368   -2.2094    4.5487 C   0  0  0  1  0  0  0  0  0  0  0  0
    5.2168    0.8990   -0.3257 O   0  0  0  1  0  0  0  0  0  0  0  0
    5.6144   -0.6729    7.6765 F   0  0  0  1  0  0  0  0  0  0  0  0
    2.3588    0.0553    1.4512 C   0  0  0  1  0  0  0  0  0  0  0  0
    2.3536    0.9880    2.2376 O   0  0  0  1  0  0  0  0  0  0  0  0
    1.0994   -0.4010    0.7986 C   0  0  0  1  0  0  0  0  0  0  0  0
    6.7203    1.1488    1.3341 N   0  0  0  1  0  0  0  0  0  0  0  0
    7.5927    2.0862    0.6427 C   0  0  0  1  0  0  0  0  0  0  0  0
    3.5311   -1.3583    0.4937 H   0  0  0  1  0  0  0  0  0  0  0  0
    4.5640    0.3280    2.6362 H   0  0  0  1  0  0  0  0  0  0  0  0
    6.4665   -1.1862    2.5912 H   0  0  0  1  0  0  0  0  0  0  0  0
    5.7282   -2.0585    1.2690 H   0  0  0  1  0  0  0  0  0  0  0  0
    3.8618   -3.7441    1.8063 H   0  0  0  1  0  0  0  0  0  0  0  0
    2.8420   -4.7179    3.9419 H   0  0  0  1  0  0  0  0  0  0  0  0
    3.0194   -4.1968    6.6966 H   0  0  0  1  0  0  0  0  0  0  0  0
    4.0258   -2.6596    8.2789 H   0  0  0  1  0  0  0  0  0  0  0  0
    5.9333   -0.5682    5.1731 H   0  0  0  1  0  0  0  0  0  0  0  0
    0.4928   -0.9160    1.5139 H   0  0  0  1  0  0  0  0  0  0  0  0
    1.3358   -1.0614   -0.0095 H   0  0  0  1  0  0  0  0  0  0  0  0
    0.5654    0.4466    0.4227 H   0  0  0  1  0  0  0  0  0  0  0  0
    6.9793    0.8590    2.2337 H   0  0  0  1  0  0  0  0  0  0  0  0
    8.4293    1.5598    0.2328 H   0  0  0  1  0  0  0  0  0  0  0  0
    7.9405    2.8254    1.3336 H   0  0  0  1  0  0  0  0  0  0  0  0
    7.0498    2.5625   -0.1468 H   0  0  0  1  0  0  0  0  0  0  0  0
  1  3  1  0  0  0  0
  1 14  2  0  0  0  0
  1 19  1  0  0  0  0
  2  3  1  0  0  0  0
  2 16  1  0  0  0  0
  2 21  1  0  0  0  0
  3  4  1  0  0  0  0
  3 22  1  0  0  0  0
  4  5  1  0  0  0  0
  4 23  1  0  0  0  0
  4 24  1  0  0  0  0
  5  6  2  0  0  0  0
  5 13  1  0  0  0  0
  6  7  1  0  0  0  0
  6 25  1  0  0  0  0
  7  8  1  0  0  0  0
  7 26  1  0  0  0  0
  8  9  1  0  0  0  0
  8 13  2  0  0  0  0
  9 10  2  0  0  0  0
  9 27  1  0  0  0  0
 10 11  1  0  0  0  0
 10 28  1  0  0  0  0
 11 12  2  0  0  0  0
 11 15  1  0  0  0  0
 12 13  1  0  0  0  0
 12 29  1  0  0  0  0
 16 17  2  0  0  0  0
 16 18  1  0  0  0  0
 18 30  1  0  0  0  0
 18 31  1  0  0  0  0
 18 32  1  0  0  0  0
 19 20  1  0  0  0  0
 19 33  1  0  0  0  0
 20 34  1  0  0  0  0
 20 35  1  0  0  0  0
 20 36  1  0  0  0  0
M  END
> <BCLConfClusterSize>
1

> <ConfClashScore>
0 

> <ConfOneFourInteractionScore>
-0.981931 

> <ConfScore>
0.170687 

> <ConfScorePBest>
1 

> <SampleByParts>
0 18 19 

$$$$
